https://eeastlseigh.github.io/?Chart=ensemble-de-jeu-stars-cosplay-pour-noël-saegusa-ibara-amagi-rinne-mashiro-tomoya-fushimi-yuzu-akehoshi-subaru-gelnew
https://eeastlseigh.github.io/?Chart=mbs-3050-060g1154-danfoss-mbs3050-capteur-de-pression-de-la-série
https://eeastlseigh.github.io/?Chart=lumière-de-sauna-sg-pour-porsche-panamera-2010-2016-97063116305-97063116405-97063116315-97063116415
https://eeastlseigh.github.io/?Chart=manteau-en-fourrure-de-renard-véritable-pour-femmes-veste-d-hiver-coréenne-vêtements-de-luxe-vestes-en-fourrure-naturelle-vêtements-pour-femmes-offre-spéciale-2021
https://eeastlseigh.github.io/?Chart=kunbaby-couvercle-d-étrier-de-frein-en-plastique-abs-logo-argenté-et-chromé-pour-audi-s-line-allroad-qufreshtts-q5-q3-a4-4-pièces
https://eeastlseigh.github.io/?Chart=kit-d-autocollants-aftermarket-endflats-pour-husqvarna-endflats-smile-moto-701-2015-2024-hqes701524001-pr
https://eeastlseigh.github.io/?Chart=mémoire-ic-cy7c1320kv18-250bzxc-sram-synchrone-mémoire-ddr-ii-parallèle-18-mo-512k-x-36-250-mhz-nouveauté-et-original
https://eeastlseigh.github.io/?Chart=lustre-en-cristal-de-luxe-haut-de-gamme-grand-salon-duplex-bâtiment-restaurant-hôtel-corrigé-par-le-service-des-ventes-éclairage-de-plafond
https://eeastlseigh.github.io/?Chart=mini-grue-de-magasin-pliable-portable-grue-pliante-mobile-prix-d-usine-du-fabricant-chinois
https://eeastlseigh.github.io/?Chart=jante-tubulaire-de-vélo-de-route-entièrement-en-carbone-700c-60mm
https://eeastlseigh.github.io/?Chart=men-normal-suits-set-100-wool-leisure-fashion-style-grey-stripe-young-boy-father-wedding-groom-wear-single-breasted-clothing
https://eeastlseigh.github.io/?Chart=huasifei-routeur-wifi-4g-sans-fil-300mbps-puissant-extension-de-carte-sim-de-qualité-industrielle
https://eeastlseigh.github.io/?Chart=écran-lcd-de-remplacement-17-3-pouces-n173hge-e11-n173hge-e21-edp-30-broches-fhd-1920x1080
https://eeastlseigh.github.io/?Chart=feux-arrière-à-led-pour-toyota-camry-feux-arrière-2018-à-2021-assemblage-se-clignotants-séquentiels-dynamiques-feux-de-freinage-drl
https://eeastlseigh.github.io/?Chart=logo-2md08-2hb08-2fb08-2cc01-module-logique-24-ceo-sans-affichage-contrôleur-plc
https://eeastlseigh.github.io/?Chart=hana-phare-antibrouillard-pour-voiture-pour-chrysler-300c-2005-2010-300-c-drl-ampoule-led-bi-xénon-accessoires-de-voiture
https://eeastlseigh.github.io/?Chart=écran-industriel-lb040q04-td-01-100-original-nouveau-livraison-gratuite-lb040q04-td01
https://eeastlseigh.github.io/?Chart=mellanox-serveur-connectx-3-cx354a-pcie-x8-40-gbe-qsfp-double-port
https://eeastlseigh.github.io/?Chart=kiosque-de-signalisation-numérique-avec-écran-lcd-support-android-wifi-55-pouces
https://eeastlseigh.github.io/?Chart=grande-tente-gonflable-de-dôme-tentes-gonflables-de-secours-d-air-abri-scellé-spécial-de-tentes-tente-gonflable-de-dôme-de-publicité
https://eeastlseigh.github.io/?Chart=fil-principal-hors-bord-suzuki-câble-sfp-16-broches-16-pieds-36620-hauj03
https://eeastlseigh.github.io/?Chart=kit-de-réparation-d-origine-t60-v80-g10-d90-2-0t-k0120396
https://eeastlseigh.github.io/?Chart=kit-de-service-de-réparation-de-compresseur-d-air-valve-à-pression-minimale-de-2901099700-prix-d-usine
https://eeastlseigh.github.io/?Chart=modems-4g-lte-ec25-au-lcc-à-usb2-0-adaptateur-industriel-avec-fente-pour-carte-sim-gps-lte-fdd-b1-b2-b3-b4-b5-b7-b8-b28
https://eeastlseigh.github.io/?Chart=générateur-d-ozone-pour-baignoire-douche-spa-piscine-ologging-supporter-ficateur-d-eau-de-piscine-kit-de-dispositif-de-remplacement-4x-220v-300-mg-h-7
https://eeastlseigh.github.io/?Chart=kit-de-feux-antibrouillard-led-pour-nissan-x-trail-frontier-rogue-feu-de-jour-avant-assemblage-de-faisceaux-de-câbles-2021-2022
https://eeastlseigh.github.io/?Chart=entry-door-hall-cabinet-solid-wood-entrance-cabinet-household-shoe-cabinet-light-luxury-sideboard-cabinet-curio-cabinet
https://eeastlseigh.github.io/?Chart=jandaning-feu-de-stop-arrière-pour-toyota-sienna-avalon-aygo-wish-camry
https://eeastlseigh.github.io/?Chart=extracteur-de-presse-à-froid-électrique-portable-sans-filtre-presse-agrumes-lent-presse-fruits-à-vis-de-gros-calibre-séparation-7
https://eeastlseigh.github.io/?Chart=ensemble-complet-de-lumières-de-sauna-à-led-pour-honda-rénovation-vezel-nouveau-modèle-suv-2013-à-2021
https://eeastlseigh.github.io/?Chart=moniteur-d-origine-pour-masersauquattroporte-caméra-2018-degrés-vue-panoramique-oiseau-3d-stationnement-latéral-avant-et-arrière-costume-360
https://eeastlseigh.github.io/?Chart=garde-boue-latéral-pour-land-rover-defender-90-2d-2020-2023-style-lumma-2-pièces
https://eeastlseigh.github.io/?Chart=kit-de-réparation-moteur-gt-pour-audi-audi-a3-a4-horizon-q5-tt-vw-beetle-jetta-passat-skoda-octavia-seat-alhambra-06h107065cq-6hnightlife-158j-6-pièces
https://eeastlseigh.github.io/?Chart=huade-électrovanne-hydraulique-4we6-vanne-à-bobine-directionnelle-ofcw220-50n9z5l
https://eeastlseigh.github.io/?Chart=microscope-à-souder-gemmologique-écran-ips-hd-12mp-2000x-7-le-plus-récent
https://eeastlseigh.github.io/?Chart=ménage-de-luxe-léger-contre-le-mur-salon-en-acier-côté-rangement-garde-manger-buffet-de-rangement-buffet
https://eeastlseigh.github.io/?Chart=fx-audio-dac-m1-mini-hifi-usb-radiateur-ess9038q2m-décodeur-bluetooth-5-0-aptx-32bit-768-enter-dsdorgsauna-amplificateur-de-téléphone-avec-télécommande
https://eeastlseigh.github.io/?Chart=entonnoir-à-pression-en-acier-inoxydable-stockage-de-caoutchouc-pression-précieuse-moteur-assad-e27
https://eeastlseigh.github.io/?Chart=fcy-pardessus-double-face-en-laine-et-cachemire-pour-femme-haut-de-gamme-mi-long-col-en-fourrure-de-renard-style-coréen-vêtements-d-extérieur-automne-hiver
https://eeastlseigh.github.io/?Chart=écran-tactile-lcd-d-origine-pour-blackview-bv5000-assemblage-externe-écran-de-téléphone-portable-écriture-manuscrite
https://eeastlseigh.github.io/?Chart=étui-de-transport-tactique-pour-armes-à-feu-m249-1m-pour-sports-de-plein-air-double-fusil-pochette-militaire-de-chasse-étui-de-protection-pour-armes-à-feu
https://eeastlseigh.github.io/?Chart=machine-laser-de-haute-précision-pour-soudage-de-bijoux-or-argent-banc-nouveau-design
https://eeastlseigh.github.io/?Chart=mavisun-lit-double-pour-garçons-cadre-de-voiture-de-simulation-de-dessin-animé-lumière-bleue-froide-ample-zone-de-sommeil-meubles-de-chambre-à-coucher-pour-enfants
https://eeastlseigh.github.io/?Chart=melcabinet-armoire-de-rangement-commode-étagère-placard-de-salon-arcade-coffre-meubles-nordiques-woonkamer-kasten
https://eeastlseigh.github.io/?Chart=don-judy-alterfur-s-pour-séance-photo-accessoires-de-photographie-robe-de-soirée-vêtements-pour-femmes-robe-maxi-longue-tenue-de-douche-de-bébé
https://eeastlseigh.github.io/?Chart=lunettes-vr-avec-façades-d-appareil-photo-core-2-go-32-go-btpig-ar-aigc-gpt-ai-all-in-one-5g-wifi-vr-ar-inmo-air-2-ar-pré-vente-nouveau-2023
https://eeastlseigh.github.io/?Chart=injwool-grande-écharpe-imprimée-double-face-pour-femme-châles-de-forêt-tropicale-bord-roulé-à-la-main-exquis-haut-de-gamme-élégant-qualité
https://eeastlseigh.github.io/?Chart=la-couche-optique-originale-2-de-hw-32-port-10g-de-s1720x-32xwr-tout-neuf-gaspille-le-commutateur-de-noyau-d-accès-de-fibre
https://eeastlseigh.github.io/?Chart=kit-de-reconstruction-pour-kubota-v1903-ensemble-tête-de-cylindre-valve-segment-de-piston-joint-complet
https://eeastlseigh.github.io/?Chart=machine-électrique-de-fitness-cardio-à-usage-domestique-tapis-roulant-d-exercice-prix-fabricant
https://eeastlseigh.github.io/?Chart=lumières-ambiantes-en-acrylique-pour-intérieur-de-voiture-honda-odyssey-guide-64-rvb-fibre-optique-décoration-de-voiture-escales-2018
https://eeastlseigh.github.io/?Chart=lentille-de-phares-antibrouillard-led-pour-isuzu-d-max-dmax-2021-2022-2023-angel-eyes-ring-daytime-running-light-car-fog-lamp-drl-stores-and-right
https://eeastlseigh.github.io/?Chart=meilleure-caméra-web-f80-à-suivi-automatique-avec-microphone-système-de-visioconférence-ai-pour-salle-de-réunion
https://eeastlseigh.github.io/?Chart=interrupteur-de-pression-numérique-à-réinitialisation-manuelle-réglable
https://eeastlseigh.github.io/?Chart=écran-d-affichage-hdouvriers-hdorghdusk-panneau-de-moniteur-ebusk-hd823-hd1023-hd1430-prix-d-usine
https://eeastlseigh.github.io/?Chart=lumière-de-piste-led-10w-7-pièces-5-pièces-1-mètre-de-rail-1-connecteur-de-piste-led-coudé-3-connecteurs-droits-tout-noir
https://eeastlseigh.github.io/?Chart=ensemble-de-douche-de-bain-thermostatique-à-lumière-led-clé-de-piano-pluie
https://eeastlseigh.github.io/?Chart=mini-pc-avec-boîtier-industriel-ipc-4-go-de-ram-500-go-de-disque-dur-sans-ventilateur-intel-celeron-c1037u-1-8-ghz-vga-hdmi-rj45-usb-6-com-windows-linux
https://eeastlseigh.github.io/?Chart=jtld-tuyaux-en-acier-inoxydable-pour-harness-gtr-r35-tuyaux-dotary-en-caste-louisiana
https://eeastlseigh.github.io/?Chart=mini-aspirateur-robot-domestique-intelligent-sans-fil-recharge-automatique-du-sol-balayage
https://eeastlseigh.github.io/?Chart=mikrotik-ros-rb450gx4-cpu-4-cœurs-716mhz-1-go-de-ram-5xgigabit-ethernet-sortie-poe-sur-le-port-5-routeros-l5
https://eeastlseigh.github.io/?Chart=haojiayi-poignée-de-commande-sans-fil-ruida-contrôleur-laser-co2-wbk301r-wbk301t-rdc6442g-rdc6442s-rdc6432g
https://eeastlseigh.github.io/?Chart=injecteur-de-carburant-diesel-crdi-pour-bosch-kia-sorento-sedona-carnival-hyundai-santa-fe-g70-g80-0445110584-0445110583-338002f610-nouveau
https://eeastlseigh.github.io/?Chart=feu-antibrouillard-led-drl-pour-volkswagen-vw-jetta-sagitar-mk6-2015-2018-phare-de-conduite-lumière-du-jour-7
https://eeastlseigh.github.io/?Chart=manteau-en-tweed-à-col-rond-pour-femmes-veste-en-laine-à-paillettes-manteau-à-carreaux-vêtements-d-extérieur-élégants-marque-de-créateur-haute-qualité-piste-2023
https://eeastlseigh.github.io/?Chart=feux-antibrouillard-pour-toyota-hilux-revo-2020-2021-led-drl-feux-de-jour-avec-clignotant-32
https://eeastlseigh.github.io/?Chart=mini-actionneur-électrique-à-bille-en-plastique-wifi-type-ydkl-chr25-ac220
https://eeastlseigh.github.io/?Chart=learin-lampe-de-table-rétro-américaine-tiffany-salon-chambre-à-coucher-luxueux-villa-hôtel-vitrail-lampe-de-bureau-39
https://eeastlseigh.github.io/?Chart=feu-arrière-led-en-losange-35w-pour-jeep-wrangler-jk-2007-2017-1-paire-version-américaine-européenne
https://eeastlseigh.github.io/?Chart=lèvres-de-pare-chocs-arrière-de-voiture-de-sport-diffuseur-arrière-style-s63-mise-à-niveau-s400-s480-s580-classe-s-w223-année-2022
https://eeastlseigh.github.io/?Chart=for2010-2013-porsche-broderie-enne-rique-sg-direction-sunshine-assemblage-conducteur-passager-côté-équipement-d-origine-fabricant
https://eeastlseigh.github.io/?Chart=écran-tactile-lcd-pour-hp-envy-assemblage-de-hébergements-eur-13-ag0004nf-13-ag0010nf-13-ag0011nf-13-ag0012nf-13-ag0013nf-13-ag0999nf
https://eeastlseigh.github.io/?Chart=imprimante-3d-en-céramique-poterie-argile-porcelaine-terre-cuite-plâtre-d-alumine-contre-indiqué-petite-haute-précision-5
https://eeastlseigh.github.io/?Chart=feux-de-voiture-pour-dodge-challenger-2015-2021-assemblage-de-phares-automobiles-mise-à-niveau-lentille-bicofal-signal-dynamique-lampe-accessoires
https://eeastlseigh.github.io/?Chart=lampe-de-bureau-incurvée-pour-ordinateur-de-luxe-plaque-de-pierre-minimaliste-bodtable-et-chaise-blosupervisor-president-manager
https://eeastlseigh.github.io/?Chart=micro-onduleur-solaire-intelligent-installation-facile-correspondance-automatique-réseau-pour-panneau-solaire-mppt-wifi-entrée-20-60vdc-80-265vac-800w
https://eeastlseigh.github.io/?Chart=évier-manuel-de-luxe-en-acier-inoxydable-304-680x480-mm-livraison-gratuite-évier-d-appartement
https://eeastlseigh.github.io/?Chart=ld-680-nouveau-cadre-de-rotation-mf-ite-démonter-la-température-de-la-machine-solitaire-pour-écran-lcd-incurvé-séparant-l-outil-de-réparation
https://eeastlseigh.github.io/?Chart=kst-x30-12-150-v8-0-12v-150-kg-cm-0-12eiver-60deg-brushless-servo-moteur-pour-drone-uav-rc-voiture-robot-grande-échelle-uav-industriel
https://eeastlseigh.github.io/?Chart=gels-de-câble-de-haut-parleur-pour-audiophiles-et-systèmes-hifi-haut-de-gamme-plaqué-argent-prise-bêche-5n-occ
https://eeastlseigh.github.io/?Chart=kit-de-révision-et-de-reconstruction-pour-mitsubishi-s4l-s4l2-ensemble-de-roulements-de-joint-de-piston-pièces-de-moteur-de-pelle-tc35
https://eeastlseigh.github.io/?Chart=gotway-poignée-de-chariot-begode-mten-3-pièce-de-rechange-accessoires-de-roues-électriques
https://eeastlseigh.github.io/?Chart=mooer-mini-pédale-de-volume-pour-guitare-basse-coque-en-métal-true-bypass
https://eeastlseigh.github.io/?Chart=kawasaki-pièces-de-rechange-pour-pompe-hydraulique-m2x146
https://eeastlseigh.github.io/?Chart=geuine-châle-en-vraie-fourrure-de-vison-pour-femme-châle-moulant-écharpe-de-mariée-blanche-collection-automne-hiver-s89
https://eeastlseigh.github.io/?Chart=hayon-électrique-pour-byd-seaghydr2023-2024-hayon-électrique-coffre-automatique-mains-libres-ouvre-porte-arrière-avec-fonction-de-télécommande
https://eeastlseigh.github.io/?Chart=jeep-de-luxe-pour-enfants-haute-qualité-poussette-de-plage-4-places-nouveauté
https://eeastlseigh.github.io/?Chart=lampe-de-sauna-à-led-avec-drl-sprint-150-gl-super-gtr-ect-pa
https://eeastlseigh.github.io/?Chart=dogebos-vélo-de-montagne-électrique-pour-adulte-suspension-à-choc-avant-vtt-fatopathie-250w-48v-10-4-ah-20-pouces-45km-h
https://eeastlseigh.github.io/?Chart=machine-de-rangement-entièrement-existent-avec-valve-à-tête-unique-accessoires-outils-de-jardin
https://eeastlseigh.github.io/?Chart=kit-de-déflecteur-modifié-aile-arrière-pour-honda-civic-11th-gen-2021-2022-1-5t-pièce-de-rechange-lèvre-de-démarrage
https://eeastlseigh.github.io/?Chart=feu-arrière-polo-pour-polo-2011-2017-2-pièces-phare-led-pour-coffre-arrière-drl-frein-marche-arrière-clignotant
https://eeastlseigh.github.io/?Chart=meuble-de-luxe-flottant-pour-salon-meuble-tv-rétro-blanc-sol-moderne-meubles-de-théâtre
https://eeastlseigh.github.io/?Chart=machine-de-pulvérisation-servo-électrique-à-pas-croisé-glissière-linéaire-guidage-technique-jasp45-syns-info-ous
https://eeastlseigh.github.io/?Chart=moteur-de-bateau-à-essence-60-ch-livraison-gratuite-équipement-de-conduite-partie-moteur-hors-bord-nouveau-modèle-de-moteur-yamaha-2-temps
https://eeastlseigh.github.io/?Chart=jupes-latérales-de-lèvre-avant-et-arrière-en-fiber-de-carbone-kit-de-carrosserie-de-haute-qualité-pour-porsche-panamera-971-971
https://eeastlseigh.github.io/?Chart=friteuse-à-air-numérique-intelligente-proscenic-t21-1700w-5-5l-sans-huile-compatible-avec-alexa-et-google-home-écran-tactile-programmable-stock
https://eeastlseigh.github.io/?Chart=js-led-unité-de-commande-de-lumière-de-sauna-hid-adaptative-utilisation-de-ballast-pour-bm-7472765-g12-g11-oem-63117464385
https://eeastlseigh.github.io/?Chart=kit-de-gestion-de-l-air-système-de-suspension-pneumatique-système-de-contrôleur-électronique-avec-1-pièce-sans-soudure-pompe-de-compresseur-précieuse-nouveau-100
https://eeastlseigh.github.io/?Chart=eliwell-régulateur-de-température-numérique-icp11c0750002-230v-nouveau
https://eeastlseigh.github.io/?Chart=lit-double-en-bois-massif-européen-1-8m-1-5m-meuble-de-chambre-principale-haut-de-gamme-lit-de-princesse-avec-espace-de-rangement
https://eeastlseigh.github.io/?Chart=moteur-et-support-de-transmission-pour-toyota-sienna-3-3l-fwd-04-06-a4211-a4257-a420-4x
https://eeastlseigh.github.io/?Chart=housse-de-protection-pour-phares-nouveau-produit-durable-fabrication-d-usine-vente-directe-63119450231-32
https://eeastlseigh.github.io/?Chart=lunettes-de-soleil-polarisées-sur-mesure-myopie-prescription-verres-polarisés-plein-bord-sport-colorées-vente-réelle-2019-1-à-6
https://eeastlseigh.github.io/?Chart=écran-central-supérieur-pour-kit-607-pixel-réparation-2000-2008-110008883002
https://eeastlseigh.github.io/?Chart=moniteur-de-qualité-de-l-air-portable-fabricant-chinois-pm2-5
https://eeastlseigh.github.io/?Chart=moyeu-de-moteur-d-entraînement-sans-engrenage-sans-balais-pour-vélo-électrique-roue-arrière-de-vélo-électrique-36v-500w
https://eeastlseigh.github.io/?Chart=jiqi-broyeur-de-déchets-alimentaires-en-acier-inoxydable-560w-broyeur-de-résidus-processeur-d-ordures-broyeur-d-élimination-des-déchets-d-égout-extracteur-pour-évier-de-cuisine
https://eeastlseigh.github.io/?Chart=montre-intelligente-lt32-4g-all-netcom-pour-hommes-et-femmes-appel-vidéo-epicard-gps-wifi-localisation-lbs-appareil-photo-horloge-pour-apple-huawei-montre-intelligente-pour-enfants
https://eeastlseigh.github.io/?Chart=feu-de-jour-étanche-led-pour-mazda-3-axela-2019-2020-12v-jaune-clignotant-pare-chocs-drl-11
https://eeastlseigh.github.io/?Chart=ensemble-de-tendeur-de-courroie-adapté-à-toyota-camry-rav4-solara-highlander-2-0-2-4-2001-2012-pour-scion-xb-tc-16620-28010
https://eeastlseigh.github.io/?Chart=montre-mécanique-existent-de-luxe-pour-homme-accessoire-en-acier-inoxydable-noir-et-bleu-toile-et-cuir
https://eeastlseigh.github.io/?Chart=machine-à-brouillard-à-base-d-eau-3000w-dmx512-effet-de-scène-faible-fumée-d-eau-couchée
https://eeastlseigh.github.io/?Chart=lot-de-15-végétde-haute-qualité-pour-système-de-ville-pour-bmw-e60-e61-f10-f18-f11-e39-f07-520i-523i-525i-12138616153-12137594596
https://eeastlseigh.github.io/?Chart=hjfg-pince-à-cheveux-gerbera-4-bandeau-600-1-5-pièces-accessoires-de-cheveux-pour-enfants-pour-bébés-filles
https://eeastlseigh.github.io/?Chart=huananzbottles-carte-mère-de-jeu-x79-deluxe-avec-emplacement-ssd-m-2-nvme-cpu-xeon-e5-2660-v2-refroidisseur-grande-marque-ram-32-go-4x8-go-recc-meilleur-ensemble
https://eeastlseigh.github.io/?Chart=mono-étui-clavier-vertigo-m80-chargement-par-le-haut-design-hybride
https://eeastlseigh.github.io/?Chart=machine-à-estamper-automatique-zy-819-a-machine-à-rainurer-le-logo-du-cuir-gaufrage-de-carte-de-nom-à-grande-vitesse
https://eeastlseigh.github.io/?Chart=feu-de-jour-led-drl-pour-ford-escort-2015-2018-avec-clignotant-jaune-et-bleu-1-paire
https://eeastlseigh.github.io/?Chart=ford-focus-2019-1-18-modèle-de-voiture-de-course-avec-petit-cadeau
https://eeastlseigh.github.io/?Chart=ensemble-de-table-à-manger-et-chaises-rondes-en-marbre-naturel-noir-observateur-luxe-poumons
https://eeastlseigh.github.io/?Chart=kolida-kts442r10u-station-totale-améliorée-double-écran-lcd-haute-précision-équipement-d-arpentage-sans-réflecteur-1000m-nouveau
https://eeastlseigh.github.io/?Chart=garde-boue-de-roue-avant-de-moto-avec-kit-de-stabilisateur-de-fourche-pour-bmw-r-nine-t-r9t-rninet-scrambler-16-19-2016-2017-2018-2019
https://eeastlseigh.github.io/?Chart=kingcher-barres-nerf-adaptées-à-la-land-rover-discovery-3-2006-2016-vente-en-gros-accessoires-de-voiture-marchepieds-latéraux-usine
https://eeastlseigh.github.io/?Chart=kit-de-montage-de-moteur-et-boîte-de-vitesses-2-pièces-pour-audi-a3-s3-vw-golf-jetta-touran-skoda
https://eeastlseigh.github.io/?Chart=lecteur-de-limitation-automobile-pour-hyundai-santa-fe-écran-de-placements-qualcomm-android-11-radio-gps-fête-45-2013-2014-2015-2016-2017-2018
https://eeastlseigh.github.io/?Chart=lunettes-laser-bleues-multi-points-lumineuses-à-led-gants-costumes-masques-boîte-de-nuit-halloween-accessoires-fluorescents-lunettes-de-soleil
https://eeastlseigh.github.io/?Chart=hurbike-couvercle-de-lumière-de-sauna-avant-pare-brise-lampe-de-carénage-pour-honda-rebel-1100-cm1100-cmx1100-2021-2022
https://eeastlseigh.github.io/?Chart=hugerock-tablette-industrielle-robuste-de-8-pouces-k80-2021-lecteur-hf-rfid-gps-gnss-ordinateur-4g-lte-oem-odm
https://eeastlseigh.github.io/?Chart=feux-de-voiture-pour-cadgrad-ats-2014-2018-ats-l-led-auto-sauna-lumières-assemblée-mise-à-niveau-projecteur-4-lentille-ociamique-lampe-outils-accessoires
https://eeastlseigh.github.io/?Chart=escarpins-pointus-en-daim-parker-pour-femmes-chaussures-à-talons-hauts-talon-fin-perle-fête-de-mariage-grande-taille-nouveau-2024
https://eeastlseigh.github.io/?Chart=mandrin-hydraulique-à-trois-mâchoires-standard-de-taiwan-doigt-solide-deux-6810-pouces-enveloppement-du-corps-en-acier
https://eeastlseigh.github.io/?Chart=machine-à-cintrer-cnc-pour-barres-d-armature-en-fer-acier-à-grande-vitesse-dispositif-de-pliage-de-cerceaux-de-construction-gf25
https://eeastlseigh.github.io/?Chart=liuhuo-syns-info-collants-de-natation-pour-bol-justaucorps-dangthmique-pour-enfants-vêtements-d-équipe-de-compétition-pour-adolescents-strihear-black
https://eeastlseigh.github.io/?Chart=lits-de-sauna-king-king-king-pour-lits-et-meubles-planche-de-sauna-de-lit-oreiller-sans-fret-noir-bases-et-cadres-de-lit-pour-la-maison-tête-de-lit
https://eeastlseigh.github.io/?Chart=kit-complet-de-carénages-abs-pour-moto-ensemble-de-batterie-de-travail-bleu-argent-adapté-pour-honda-cbr600rr-f5-2009-2010-2011-2012-09-10-11-12-4-cadeaux-nouveau
https://eeastlseigh.github.io/?Chart=kit-de-protection-de-diffuseur-de-pare-chocs-avant-pour-mercedes-benz-séparateur-de-pare-chocs-avant-pour-mercedes-benz-cla-classe-c117-cla200-260-cla45-jas-2013-2015-jules-spomicrophone-5
https://eeastlseigh.github.io/?Chart=kit-de-réparation-de-transmission-en-acier-à-friction-pour-bmw-boîte-de-vitesses-joint-d-embrayage-overcarlkit-5gardens-19-5gardens-19fl-19fla-5hp-19
https://eeastlseigh.github.io/?Chart=inhalateur-à-maille-ultrasonique-portable-pour-enfants-nébuliseur-fitconn-déterminer-bébé-mini-inhalateur-kit-de-machine-médicale-pour-l-asthme
https://eeastlseigh.github.io/?Chart=grande-horloge-murale-pour-la-décoration-du-salon-horloges-3d-nordiques-en-forme-de-planète-décoration-murale-décoration-intérieure-de-la-maison-montre
https://eeastlseigh.github.io/?Chart=équipement-pour-les-organes-génitaux-de-la-main-pour-les-accidents-vasculaires-cérébraux-la-mariée-avec-hémiplégie-la-récupération-nerveuse-épaissie-miroir-anglais-injuste
https://eeastlseigh.github.io/?Chart=machine-à-dénuder-les-fils-électriques-outil-de-dénudage-automatique-câble-de-ferraille-cuivre-bungalow-180w-621-5-25mm
https://eeastlseigh.github.io/?Chart=lampe-d-opération-dentaire-avec-capteur-lampe-orale-lampe-de-propord-implant-9-gibles-unité-dentaire-chaise-nouveau
https://eeastlseigh.github.io/?Chart=écran-tactile-lcd-capacitif-ip65-15-pouces-panneau-industriel-sans-ventilateur-pc-i7-8550u-i5-8250u-j1900-ordinateur-tout-en-un-2lan-2com-gpio
https://eeastlseigh.github.io/?Chart=newage-figurine-d-action-robot-de-transformation-na-h45b-strangelove-18cm-modèle-anime-jouet-pour-cadeau-livraison-gratuite
https://eeastlseigh.github.io/?Chart=foyer-vapeur-d-eau-électrique-3d-super-panneau-rond-ajout-d-eau-automatique-garantie-5-ans-nouveau
https://eeastlseigh.github.io/?Chart=guidage-de-circulation-led-pliable-en-pvc-flèche-droite-et-magasins-feux-clignotants-en-iode-de-sécurité-aspiration-magnétique-guidep-2018-46cm-x-85cm
https://eeastlseigh.github.io/?Chart=horloge-murale-musulmane-colorée-lecteur-coran-design-diversifié-mp3-bluetooth-télécommande-religieux-azan-téléchargement-gratuit
https://eeastlseigh.github.io/?Chart=écran-tactile-225x172mm-lst10401a-10-1-pouces-10-pièces-lot-compatible-avec-verre-tactile-4-lignes-résistance-225x172
https://eeastlseigh.github.io/?Chart=escarpins-à-billes-en-cuir-verni-rouge-talons-métalliques-solide-sexy-style-brtish-design-pour-robe-de-soirée-chaussures-pour-femmes-2024
https://eeastlseigh.github.io/?Chart=eau-à-ultrasons-portable-dp-3300-mindray-utilisé
https://eeastlseigh.github.io/?Chart=garniture-de-couverture-de-panneau-de-contrôle-central-de-voiture-fibre-de-carbone-véritable-accessoires-auto-adaptés-pour-romeo-gigreg-2017-2019
https://eeastlseigh.github.io/?Chart=ensemble-d-actionneur-de-changement-de-vitesse-de-boîte-de-transfert-de-voiture-moteur-de-changement-de-vitesse-lexus-gx470-4-7l-2003-2009-36410-60080-36410-60083-36410-60081-parts-7
https://eeastlseigh.github.io/?Chart=ecorider-batterie-de-scooter-électrique-de-golf-e7-1-48v-10-4a-48v-14a-18650-pour-chariot-de-golf-e7-1-non-inclus
https://eeastlseigh.github.io/?Chart=manteau-d-hiver-en-fausse-fourrure-pour-homme-veste-coupe-vent-long-à-capuche-en-coton-rembourré-chaud-3xl-qq020
https://eeastlseigh.github.io/?Chart=module-de-communication-rs232-original-nouveau-spot
https://eeastlseigh.github.io/?Chart=ms-17e91-d-origine-pour-gelée-ms-17e9-ge75-ordinateur-portable-carte-mère-avec-i7-10750h-cchancelor-et-rtx2060m-travail-parfait
https://eeastlseigh.github.io/?Chart=fula-lampe-de-table-vissée-tiffany-lampe-de-bureau-rétro-américaine-salon-et-chambre-à-coucher-villa-luxueuse-hôtel-vitrail-25
https://eeastlseigh.github.io/?Chart=module-de-sortie-analogique-2-dam-da04-voies-4-8-vers-contrôleur-de-signal-isolé
https://eeastlseigh.github.io/?Chart=lustre-en-verre-de-cour-française-lumière-rétro-américaine-luxe-salle-à-manger-chambre-à-coucher-salon-cristal-de-perle
https://eeastlseigh.github.io/?Chart=kit-de-repose-pieds-réglables-pour-moto-repose-pieds-pour-bmw-runder-gs-adv-k50-2016-2019-r1250gs-adventure-k51-2020-2023-nouveauté
https://eeastlseigh.github.io/?Chart=grille-de-capot-en-accent-d-abeille-pour-audi-maille-hexagonale-sport-avant-a4-s4-b8-2009-2010-2011-2012-style-rs4
https://eeastlseigh.github.io/?Chart=ensemble-d-engrenage-en-cristal-modifié-adapté-pour-bmw-série-3-série-4-série-5-série-7-6-pouces-x3x4x5x7-ensemble-de-trois-pièces
https://eeastlseigh.github.io/?Chart=juste-de-siège-de-voiture-pour-bmw-x6-f16-année-2015-2016-2017-2018-2019-2020-2021-2022-2023-2023-6
https://eeastlseigh.github.io/?Chart=imprimante-d-étiquettes-ultra-hd-600dpi-sans-fil-bluetooth-wifi-252-huabao-medical
https://eeastlseigh.github.io/?Chart=manteau-slim-fit-en-laine-ondulée-pour-femme-avec-camel-rouge-manteau-long-en-cachemire-pour-femme-grande-taille-hiver-automne-nouveau-2023
https://eeastlseigh.github.io/?Chart=extenseur-de-tube-de-cuivre-électrique-entièrement-automatique-extenseur-évasé-climatiseur-avec-lithium
https://eeastlseigh.github.io/?Chart=kit-de-carrosserie-de-réglage-pour-bmw-x6-e71-kit-de-carrosserie-de-rénovation-kit-de-carrosserie-de-réglage-pour-bmw-x6-e71-2008-2014-z-art
https://eeastlseigh.github.io/?Chart=mini-imprimante-photo-portable-sans-fil-pour-la-maison-appareil-d-impression-de-documents-hd-cp1200
https://eeastlseigh.github.io/?Chart=high-quality-carbon-fiber-g22-g28-side-skirt-accessories-for-bmw-4-series-g22-g28-2019-2022
https://eeastlseigh.github.io/?Chart=kit-de-carrosserie-en-fibre-de-carbone-3k-pour-ferrari-f12-diffuseur-arrière-lèvre-arrière-style-dmc-haute-qualité
https://eeastlseigh.github.io/?Chart=lampe-de-travail-led-aste-multifonction-camping-en-plein-air-nouveauté
https://eeastlseigh.github.io/?Chart=kit-de-plaque-de-friction-d-embrayage-de-boîte-de-vitesses-de-reconstruction-de-disque-de-friction-de-transmission-adapté-pour-prévention-a-baxa-honda-accord-4cyl-nouveau-1998-2002-23
https://eeastlseigh.github.io/?Chart=micro-world-puzzle-3d-en-métal-kits-de-modèles-d-animaux-poulpe-diable-bricolage-découpé-au-laser-assemblage-jouets-cadeau-pour-enfants
https://eeastlseigh.github.io/?Chart=lesu-crochet-de-moteur-de-tracteur-1-14-man-tgs-4-2-châssis-métallique-rc-treuil-de-toit-thzh1033-smt2
https://eeastlseigh.github.io/?Chart=nc55-900w-acfw-hd-341-100927-01-alimentation-ca-pour-le-routeur-de-série-de-ncs-55a2
https://eeastlseigh.github.io/?Chart=lèvre-avant-en-fibre-de-carbone-jupe-latérale-diffuseur-pièces-de-carrosserie-kits-de-carrosserie-pour-bmw-série-4-2020-2023-g22-425i-430i
https://eeastlseigh.github.io/?Chart=machine-de-découpe-et-de-gravure-laser-usb-40w-co2-pour-bois-acrylique-fraisage-220v
https://eeastlseigh.github.io/?Chart=jc97-04575a-ugb-unité-tête-laser-pour-samsung-sl-x7400gx-sl-x7500gx-sl-x7600gx-7400-7500-7600
https://eeastlseigh.github.io/?Chart=figurine-d-action-1-4-en-pvc-modèle-de-jouets-cadeau-étiez-ération-originale-recueilli-anronpa-nanami-chiaki-kirigiri-kyouko-bunny-girl
https://eeastlseigh.github.io/?Chart=levier-de-frein-à-disque-hydraulique-di2-105-r7170
https://eeastlseigh.github.io/?Chart=lèvre-avant-en-fiber-de-carbone-de-style-r-track-pour-nissan-gtr-r35-2008-2011-jsknsr508308
https://eeastlseigh.github.io/?Chart=écran-lcd-pour-ordinateur-portable-14-pouces-nv140fhm-n66-d-origine-fhd-1920x1080-30-broches-compatible-avec-mate-b140han06-8-n140hcg-eq1
https://eeastlseigh.github.io/?Chart=hawkeye-firefly-split-nakedcam-v4-0-4k-caméra-d-action-fpv-anti-tremblement-caméra-grand-angle-170-résistante-pour-importateur-infectieux-fpv-rc
https://eeastlseigh.github.io/?Chart=multimètre-et3240-a-4-bits-22000-points-4-4-bits-semi-numérique-true-rms
https://eeastlseigh.github.io/?Chart=moteur-de-changement-de-boîte-de-transfert-jeep-grand-traffcommander-514ino-86aa-68256976aa-2005-2010-5
https://eeastlseigh.github.io/?Chart=liandlee-lecteur-multimédia-de-voiture-avec-navigation-gps-carplay-stéréo-pour-mercedes-benz-mb-classe-a-w176-2013-2018
https://eeastlseigh.github.io/?Chart=injecteurs-de-carburant-6-pièces-pour-nissan-infiniti-s13-s14-s15180sx-240sx-altima-g20-sentra-sr20det-ka24de-1660010y00-166001p102-1660096e00
https://eeastlseigh.github.io/?Chart=manteau-d-hiver-en-duvet-de-canard-blanc-pour-femme-veste-longue-au-dessus-du-genou-col-en-fourrure-de-renard-épais-et-chaud-à-capuche-nouvelle-collection-90
https://eeastlseigh.github.io/?Chart=machine-électrique-de-grattage-de-peinture-fil-de-cuivre-émaillé-épluchage-couteau-de-grattage-outil-de-réparation-de-moteur-développements-modèle-110v-220v
https://eeastlseigh.github.io/?Chart=machine-à-crème-glacée-molle-commerciale-équipement-commercial-machine-à-milk-shake-machine-à-clics-congelés-double-bols-machine-à-glace-pilée-4l-2-mini-yogsigned
https://eeastlseigh.github.io/?Chart=lentille-de-phare-de-voiture-pour-audi-tt-08-14-1-paire-masque-de-phare-américain
https://eeastlseigh.github.io/?Chart=lampes-suspendues-d-art-de-tissu-nordique-style-crème-moderne-chambre-à-coucher-salon-table-de-restaurant-lampes-suspendues-lustres-de-réception-d-hôtel
https://eeastlseigh.github.io/?Chart=mindray-module-d-extension-audio-et-vidéo-m8-m9-m-8-m-9-couleurs-doppler-ultrason-iock51
https://eeastlseigh.github.io/?Chart=modèle-fans-instock-diable-âme-ryujinmaru-ryuoumaru-contiennent-en-métal-léger-led-d-action-robot-jouet
https://eeastlseigh.github.io/?Chart=électrovanne-festo-festo-cpe24-m1h-5-3bs-qs-12-170282
https://eeastlseigh.github.io/?Chart=lecteur-vidéo-de-limitation-d-autoradio-android-navigation-pour-opel-zafira-b-2005-2014-astra-h-2004-2014-no-2-din-dvd-wifi
https://eeastlseigh.github.io/?Chart=figurines-de-dessin-animé-dragon-ball-z-de-57cm-son-goku-android18-frieza-chikara-no-taikai-dbz-statue-en-pvc-beurre-gk-modèle-jouets
https://eeastlseigh.github.io/?Chart=figurine-star-vanahsoka-332nd-clone-trooper-phase-i-clone-trooper-lieutenant-anime-jouet-pour-enfant-cadeau
https://eeastlseigh.github.io/?Chart=figurine-de-jeu-d-anime-onmyoji-ssr-style-god-shore-flower-shadow-double-main-fendue-main-classique
https://eeastlseigh.github.io/?Chart=moteur-d-engrenage-à-vis-sans-fin-12v-24v-10rpm-80rpm-haute-puissance-moteur-de-porte-de-garage-60w-10
https://eeastlseigh.github.io/?Chart=echpling-machine-d-échantillonnage-existent-multifonctionnelle-machine-d-échantillonnage-intelligente-imitation-faite-à-la-main-petite-machine-commerciale-maison-nouveau
https://eeastlseigh.github.io/?Chart=extension-de-fourche-arrière-pour-moto-honda-grom-msx125-2010-2011-2012-2017-dispositif-extensible-contrôle-accru-du-levier-de-vitesses-en-cas-de-choc
https://eeastlseigh.github.io/?Chart=lampe-suspendue-en-bois-au-design-floral-moderne-luminaire-décoratif-d-intérieur-idéal-pour-une-salle-à-manger-un-restaurant-ou-un-bureau
https://eeastlseigh.github.io/?Chart=lecteur-de-limitation-de-navigation-gps-pour-renault-kaptur-capture-autoradio-android-9-7-écran-de-placement-de-style-vertical-de-12-0-pouces-2016-2019
https://eeastlseigh.github.io/?Chart=hooinoler-boîte-de-vitesses-overdrive-dlx-lcg-sancod-3-pour-1-10-rc-inoler-lcg-châssis-scx10-iii-pro-capra
https://eeastlseigh.github.io/?Chart=jeu-de-roues-de-vélo-de-route-en-carbone-frein-à-disque-routage-interne-complet-moyeu-novatseats-vélo-de-cyclisme-bb86-700c
https://eeastlseigh.github.io/?Chart=mold-king-décennie-s-de-construction-télécommandés-pour-enfants-voiture-de-montagne-à-roulettes-roue-de-blé-module-haut-jouets-en-briques-cadeaux-21006
https://eeastlseigh.github.io/?Chart=microphone-lavalier-sans-fil-avec-étui-de-charge-micro-sans-fil-suppression-du-bruit-appareil-photo-smartphone-2-4ghz-7-artisans
https://eeastlseigh.github.io/?Chart=écouteurs-sans-fil-bluetooth-v5-3-casque-d-écoute-oreillettes-clip-d-oreille-son-stéréo-hifi-sport-sauna-avec-affichage-numérique-de-puissance
https://eeastlseigh.github.io/?Chart=iec62196-2-type-2-nouveau-chargeur-d-ev-de-voiture-d-énergie-32a-monophasé-7w
https://eeastlseigh.github.io/?Chart=n18e-g0-a1-n18e-g1-a1-n18e-g2-a1-n18e-g3-a1-n18e-q3-a1-n18e-q5-a1-n18e-g1-kd-a1-n18e-g1-65-a1-bga-chipset
https://eeastlseigh.github.io/?Chart=kit-de-vidéosurveillance-nvr-sans-fil-moniteur-lcd-12-5-système-de-caméra-de-sécurité-domestique-et-extérieure-wi-fi-4-canaux
https://eeastlseigh.github.io/?Chart=ensemble-de-table-à-manger-de-cuisine-ronde-jeux-de-café-bistrot-mobile-table-pliante-de-petit-déjeuner-mobilier-de-bureau-maison-xy50dt
https://eeastlseigh.github.io/?Chart=new-top-aluminium-alloy-conference-representative-unit-touch-microphone
https://eeastlseigh.github.io/?Chart=injora-maillons-en-métal-et-acier-pour-voiture-radiocommandée-8-pièces-par-lot-en-plastique-pour-inoler-axial-capra-1-9-utb-axi03004
https://eeastlseigh.github.io/?Chart=écran-d-affichage-lcd-d-origine-5-7-pouces-uto-057vf12
https://eeastlseigh.github.io/?Chart=moc-84194-yt-985-de-tj-par-tj-the-brickwright-ensemble-de-blocs-de-construction-2259-pièces-pour-cadeau-pour-enfants
https://eeastlseigh.github.io/?Chart=fss-applique-murale-moderne-en-cuivre-et-marbre-éclairage-d-nikde-luxe-pour-salon-allée-couloir-entrée-led-escalier-hôtel-porche
https://eeastlseigh.github.io/?Chart=maison-gonflable-pastel-arc-en-ciel-parc-d-attraction-pour-tout-petit-mini-château-gonflable-blanc-pour-enfants
https://eeastlseigh.github.io/?Chart=kit-complet-de-joints-pour-isuzu-4jb1
https://eeastlseigh.github.io/?Chart=jieshuo-carte-vidéo-amd-radeon-rx-6700xt-12-go-192-bits-gddr6-gpu-jas6700xt-adaptée-aux-jeux-d-ordinateur-de-bureau
https://eeastlseigh.github.io/?Chart=lansbooter-ensemble-veste-et-pantalon-pour-homme-tenue-d-affaires-décontractée-double-boutonnage-couleur-unie-rose-trempé-idéal-pour-un-banquet-de-mariage-2-pièces
https://eeastlseigh.github.io/?Chart=écran-tactile-lcd-pour-asus-vivobook-assemblage-d-origine-1920x1080-14-pouces-fhd-tp412-tp412u-tp412f-tp412fa-tp412ua
https://eeastlseigh.github.io/?Chart=machine-de-tatouage-numérique-pour-broderie-de-sourcils
https://eeastlseigh.github.io/?Chart=ftsv82bc-capteur
https://eeastlseigh.github.io/?Chart=ensemble-de-ski-chaud-imperméable-et-coupe-vent-pour-mère-et-fille-veste-pantalon-de-snowboard-pour-enfant-et-adulte-vêtements-d-hiver
https://eeastlseigh.github.io/?Chart=gants-de-baseball-professionnels-japonais-en-cuir-de-veau-pour-adulte-pichet-sauvage-nik-premier-attrapeur-de-base-dur
https://eeastlseigh.github.io/?Chart=mini-onduleur-solaire-hybride-3-phases-5kw-10kw-mppt-lien-au-réseau-prix
https://eeastlseigh.github.io/?Chart=gt2104-pmbds2-neuf-d-occasion
https://eeastlseigh.github.io/?Chart=meilleure-qualité-housses-de-siège-de-voiture-confortables-et-respirantes-ensemble-complet-durable-pour-bmw-série-1-f20-2018-2011-livraison-gratuite
https://eeastlseigh.github.io/?Chart=fairwhale-montre-tourbillon-originale-pour-homme-mécanique-étanche-acier-noir-modules-de-marque-de-luxe-montre-bracelet-seton
https://eeastlseigh.github.io/?Chart=jaguar-xf-ja-1069-xf-x260-pour-tagon-supérieur-gauche-et-supérieur-gauche-2015-x260-jaguar
https://eeastlseigh.github.io/?Chart=enquêter-antibrouillard-avant-à-led-pour-volkswagen-vw-golf-7-a7-mk7-gti-gtd-drl-antibrouillard-2013-2014-2015-2016-5g0941699-5g0941700
https://eeastlseigh.github.io/?Chart=jonecklace-collier-en-or-véritable-18-carats-pour-femme-o-jodesign-pur-solide-au750-mode-classique-bijoux-fins-cadeau
https://eeastlseigh.github.io/?Chart=machine-de-triage-de-billets-de-banque-denominations-mixtes-billet-de-banque-multi-devises-billet-de-valeur-compteur-d-argent-mélange
https://eeastlseigh.github.io/?Chart=échelle-d-ingénierie-portable-en-alliage-d-aluminium-épaissi-échelle-pliante-échelle-à-chevrons-multifonctionnelle-échelle-télescopique-a-7
https://eeastlseigh.github.io/?Chart=matelas-gonflable-domestique-portable-confortable-pliable-moderne-camping-mémoire-produits-d-extérieur
https://eeastlseigh.github.io/?Chart=mummy-que-collecteur-de-descente-pour-bmw-accessoires-de-voiture-avec-tête-de-convertisseur-catalytique-sans-tuyau-de-chat-bronch2012
https://eeastlseigh.github.io/?Chart=kit-de-turbocompresseur-hx50w-pour-camion-shacman-wd615-moteur-adapté-au-tracteur-foton-612601110988-4045951-pièces-faw
https://eeastlseigh.github.io/?Chart=module-plc-en-stock-veuillez-vous-renseigner-70
https://eeastlseigh.github.io/?Chart=enquêter-arrière-pour-chevrolet-captiva-2008-2015-feu-arrière-drl-frein-antibrouillard-clignotant-de-recul-style-de-voiture
https://eeastlseigh.github.io/?Chart=mini-machine-de-gravure-laser-en-métal-petite-machine-de-découpe-cnc-automatique-bluetooth-home-agne
https://eeastlseigh.github.io/?Chart=lampe-de-bureau-créative-en-ciment-luminaire-décoratif-d-nik-idéal-pour-un-salon-un-bureau-une-chambre-à-coucher-ou-des-escaliers
https://eeastlseigh.github.io/?Chart=ensemble-de-feux-de-jour-drl-12v-abs-couvercle-de-phare-antibrouillard-avec-clignotant-jaune-pour-honda-avancier-2020-10
https://eeastlseigh.github.io/?Chart=grille-de-pare-chocs-avant-en-carbone-grille-d-aération-en-maille-pour-toyota-mark-x-reiz-2006-2009-1pc
https://eeastlseigh.github.io/?Chart=écran-tactile-lcd-neuf-6-5-pouces-4-broches-8-broches-lta065b1d3f
https://eeastlseigh.github.io/?Chart=haut-parleur-bluetooth-portable-lampe-led-sans-fil-tournant-caisson-de-basses-profond-mini-haut-parleurs-stéréo-portables
https://eeastlseigh.github.io/?Chart=geb-onduleur-bidirectionnel-portable-ops1500-stockage-d-énergie-alimentation-d-urgence-domestique-camping-décrochage-1500w-850w
https://eeastlseigh.github.io/?Chart=kits-de-réparation-de-pompe-de-compresseur-d-air-anneaux-de-piston-30-pièces-ensemble-pour-mercedes-w220-w211-w219-audi-a6-c5-c6-a8-d3-q7-vw-touareg-phaeton
https://eeastlseigh.github.io/?Chart=jiayi-machine-à-coudre-domestique-portable-multifonctionnelle-petite-aiguille-électrique-et-fil-machine-à-coudre-de-taille-moyenne-505
https://eeastlseigh.github.io/?Chart=jxmachine-friteuse-à-air-avec-écran-tactile-et-minuterie-antiarina-contrôle-de-la-température-double-four-multifonction-8l
https://eeastlseigh.github.io/?Chart=ensemble-écran-tactile-lcd-amoled-s22-6-1-pouces-pour-samsung-galaxy-s22-5g-s901-sm-s901f-s901b-s901b-ds
https://eeastlseigh.github.io/?Chart=matériel-médical-portatif-de-pompe-de-seringue-de-touristes-micro-de-tci-de-laboratoire-de-la-manche-hf-620-le-double-d-oem
https://eeastlseigh.github.io/?Chart=garde-boue-pour-land-rover-discovery-sport-5-2-places-garde-boue-anti-éclaboussures
https://eeastlseigh.github.io/?Chart=grande-horloge-murale-silencieuse-pour-salon-autocollants-muraux-vintage-montre-de-luxe-décoration-de-la-maison-horloges-de-cuisine-décor-moderne
https://eeastlseigh.github.io/?Chart=galrob-rails-pour-rideaux-électriques-hurized-fournisseur-de-rideaux-intelligents-accessoires-de-mise-à-jour-2024
https://eeastlseigh.github.io/?Chart=doudoune-avec-chapeau-épais-combinaison-de-montagne-résines-blanches-hiver-90-23
https://eeastlseigh.github.io/?Chart=ensemble-écran-tactile-lcd-de-remplacement-avec-châssis-14-pouces-fhd-pour-lenovo-thinkple14-s-yoga-itl-20we-5d10s39686-original
https://eeastlseigh.github.io/?Chart=doublures-de-garde-boue-intérieures-avant-en-aluminium-pour-jeep-wrangler-jk-puits-de-roue-avant-ventilés-pour-le-flux-d-air-2007-2018
https://eeastlseigh.github.io/?Chart=lesu-4tage-ou-com-essieu-avant-arrière-en-métal-pour-1-14-tamiyay-rc-tracteur-camion-dumper-radio-lonely-th02067-smt3
https://eeastlseigh.github.io/?Chart=gokom-racing-garde-boue-avant-pour-moto-honda-cbr500f-carénage-de-recouvrement-100-fibres-en-carbone-véritable-accessoires-de-moto
https://eeastlseigh.github.io/?Chart=lame-de-pare-choc-avant-convertible-protection-abs-pour-mercedes-benz-w213-e260-e300-e350-sport-2021-3-pièces
https://eeastlseigh.github.io/?Chart=great-wall-cannon-double-portique-épais-universel-en-acier-cadre-anti-roulis-degré-d-usure-et-de-rayure-camions-514-et-plus
https://eeastlseigh.github.io/?Chart=jantes-personnalisées-mags-4x2023-avec-lettres-fraisées-jantes-en-alliage-de-15-pouces-avec-4-trous-pour-voiture
https://eeastlseigh.github.io/?Chart=montres-mécaniques-de-plongée-en-acier-inoxydable-pour-hommes-marque-de-luxe-mouvement-nh36-300m-montre-de-sport-étanche-cristal-de-saphir
https://eeastlseigh.github.io/?Chart=écran-de-magnétophone-android-13-pour-toyota-auris-e180-2017-lecteur-vidéo-à-limitation-cortrustcar-unité-principale-d-autoradio-carplay
https://eeastlseigh.github.io/?Chart=eagtac-d25lc2-xm-l2-1480lm-nichia519a-4500k-cri93-sst20-4000k-cr95-lampe-de-poche-dultorch-portable-lampe-compact-lanterne
https://eeastlseigh.github.io/?Chart=machine-d-inhalation-de-générateur-d-hydrogène-h2-ioniseur-de-supporter-ficateur-d-eau-d-hydrogène-à-faible-bruit-haute-pureté-150-99-99-ml-min-spe-pem
https://eeastlseigh.github.io/?Chart=montre-laser-à-usage-domestique-650nm-4-couleurs-appareil-de-thérapie-des-polypes-nasaux-bal-inite-otite-moyenne-sinusite-contrôle-de-la-pression-artérielle
https://eeastlseigh.github.io/?Chart=instituts-d-empilage-mrf-02b-1mrf-02b-2-de-vannes-huile-type-de-recherche-contrôle-de-vanne-hydraulique-instituts-à-action-directe
https://eeastlseigh.github.io/?Chart=lampe-de-table-led-en-bois-plissée-nordique-luminaire-lustres-pour-bureau-d-étude-salon-chambre-à-coucher-chevet-éclairage-de-décoration-intérieure
https://eeastlseigh.github.io/?Chart=lampes-suspendues-réglables-vintage-mini-bar-moderne-lampe-en-carton-style-industriel-éclairage-de-salle-à-manger
https://eeastlseigh.github.io/?Chart=grille-supérieure-de-course-avant-noire-ou-dnomed-accessoires-extérieurs-de-voiture-grille-de-pare-chocs-pour-ram1500-2013-2018
https://eeastlseigh.github.io/?Chart=machine-de-beauté-ipl-opt-pour-l-épilation-continue-et-la-régénération-de-la-peau-niveau-salon-3-embouts-et-morceaux-de-langue-oem-5
https://eeastlseigh.github.io/?Chart=jeu-d-arbres-en-acier-pour-arrma-granite-grom-660-avon-cnc-hd-45-1-18
https://eeastlseigh.github.io/?Chart=mini-graveur-laser-500mw-pour-bricolage-imprimante-att-1-pièce
https://eeastlseigh.github.io/?Chart=ginkgo-lampe-autoportante-à-la-mode-luminaire-décoratif-d-intérieur-idéal-pour-une-chambre-à-coucher-un-salon-ou-un-bureau
https://eeastlseigh.github.io/?Chart=moteur-de-broche-refroidi-à-l-air-4-roulements-3-5kw-er25-ac-18000-v-tr-min-vfd
https://eeastlseigh.github.io/?Chart=juste-de-siège-de-voiture-universelle-en-cuir-pu-accessoires-automobiles-détails-intérieurs-vw-golf-6-mitsubishi-l200-avensis-t25-cristaux-en-c3-c4-5
https://eeastlseigh.github.io/?Chart=manteau-en-duvet-à-capuche-pour-femme-veste-à-manches-longues-fermeture-éclair-document-solide-chaud-décontracté-polyvalent-nouveau-2023
https://eeastlseigh.github.io/?Chart=hélice-de-bateau-à-moteur-à-entraînement-direct-sans-balais-propulsion-électrique-12-v-24-v-hors-bord
https://eeastlseigh.github.io/?Chart=mandrin-de-serrage-fixe-à-changement-rapide-pour-le-travail-du-bois-outil-rotatif-de-voiture-disque-de-fleur-grande-griffe-plate
https://eeastlseigh.github.io/?Chart=lsxjk-bottes-martin-en-cuir-à-semelles-épaisses-pour-femme-bottes-courtes-d-hiver-avec-fermeture-éclair-latérale-couleur-chair
https://eeastlseigh.github.io/?Chart=énergie-4-5-90x-stéréo-microscope-trinoculaire-mobile-réparation-téléphone-thelpcb-smartphone-soudure-industrielle-led-anneau-lumière-osl-519
https://eeastlseigh.github.io/?Chart=kit-de-reconstruction-pour-pelle-hitachi-ex70-7-ex120-ex130-kobelco-sk100-135-4bg1-4bg1t-4bg1tab
https://eeastlseigh.github.io/?Chart=ensemble-de-survêtement-côtelé-pour-femme-vêtements-d-automne-haut-court-à-lacets-leggings-streetwear-contraste-patchwork-assorti-vente-en-gros
https://eeastlseigh.github.io/?Chart=fabricants-dans-la-production-de-relais-à-gaz-qj4-80-chr80-relais-buchholz-pour-pièces-de-transformateur-d-huile
https://eeastlseigh.github.io/?Chart=dulfrog-montre-fxd-pour-homme-42mm-nh35-mouvement-mécanique-existent-titane-saphir-shoous-montre-bracelet-de-dehors-de-plongée-à-200m-v
https://eeastlseigh.github.io/?Chart=garde-boue-pour-cadillac-lyriq-4-pièces-pour-roues-avant-et-arrière-accessoires-de-style-de-voiture-2022-2023-2024
https://eeastlseigh.github.io/?Chart=fms-modèle-de-voiture-électrique-jimny-télécommandée-pour-enfants-jouet-d-escalade-tout-terrain-4-roues-motrices-1-12-cadeau-d-anniversaire
https://eeastlseigh.github.io/?Chart=kit-de-carénage-de-pièces-de-rechange-de-moto-carénages-de-couverture-de-marché-secondaire-honda-cbr-600rr-05-06-cbr-600-rr-2005-2006
https://eeastlseigh.github.io/?Chart=kit-de-réglage-d-arbre-à-cames-d-accès-à-l-admission-pour-mercedes-benz-a2780505000-a278050514900-mercedes-benz-e63-jas-gle-550-4-travaillait-c-cl-500-slk-55-jas-nouveau
https://eeastlseigh.github.io/?Chart=mateksys-f7-f722-px-w-pixel-osd-contrôleur-de-vol-matekf722px-mtks-pour-aile-fixe-ou-multirotor
https://eeastlseigh.github.io/?Chart=endoscope-industriel-3mm-haute-définition-caméra-latérale-détection-de-trous-instrument-pièces-de-précision-détection-de-bavures-sur-les-murs-intérieurs
https://eeastlseigh.github.io/?Chart=i-w-carnival-montres-mécaniques-automatiques-pour-hommes-marque-de-luxe-suisse-japon-miyota-saphir-date-automatique-horloge-en-or-18-carats-612g-g
https://eeastlseigh.github.io/?Chart=écran-android-12-emplacements-pour-voitures-patrol-y62-mf-iti-qx80-2010-2020-autoradio-gps-navigation-lecteur-de-limitation-stéréo-unité-principale-6
https://eeastlseigh.github.io/?Chart=launchxl-cc26x2r1-cc2652r1-2642-kit-de-développement-sans-fil-mcu-launchsub
https://eeastlseigh.github.io/?Chart=ensemble-de-capteurs-de-niveau-de-filtre-à-carburant-avec-régulateur-de-pression-pour-bmw-e60-e61-523i-525i-525xi-530i-16146766152
https://eeastlseigh.github.io/?Chart=écran-lcd-led-utilisé-pour-samsung-13-3-pouces-pour-ordinateur-portable-câble-interne
https://eeastlseigh.github.io/?Chart=ensemble-de-feux-antibrouillard-pour-ford-raptor-f150-1-paire-pour-pare-chocs-avant-led-drl-feux-de-jour-clignotants-2010-2011-2012-2013-2014
https://eeastlseigh.github.io/?Chart=machine-de-marquage-laser-à-fibre-portable-raycus-50w-30w-20w
https://eeastlseigh.github.io/?Chart=moteur-de-broche-de-fraisage-cnc-er11-800w-refroidissement-de-l-air-onduleur-6002-kw-4-roulements-assortis-d-origine
https://eeastlseigh.github.io/?Chart=kotobukiya-artfx-j-hiei-yuyu-hakusho-action-butter-collection-modèle-jouet-pour-garçon-cadeau-original-et-authentique-en-stock
https://eeastlseigh.github.io/?Chart=drone-rc-pliable-avec-caméra-aérophotographe-hd-flux-optique-intelligent-évitement-d-obstacles-moteur-sans-balais-jouet-quadrirotor-nouveau-support-4k
https://eeastlseigh.github.io/?Chart=fuenbachin-plafonnier-coloré-en-vitrail-tiffany-ron-style-asiatique-décoration-de-la-salle-à-manger-chambre-à-coucher-délégations-allée-lustre
https://eeastlseigh.github.io/?Chart=ensemble-de-rétroviseur-pour-honda-fit-peint-en-noir-metropolitan-power-sister-turn-light-7-broches-ex-lx-2015-2016-2017-2018-2019-droit
https://eeastlseigh.github.io/?Chart=kit-d-amortisseurs-avant-et-arrière-sans-ads-porsche-macan-95b-95b413031e-95b413031d-95b513035d-2014-2020-4-pièces
https://eeastlseigh.github.io/?Chart=feux-arrière-led-pour-bmw-x6-e71-2008-2014-feu-antibrouillard-arrière-drl-clignotant-accessoires-de-voiture-anciennes-barrage
https://eeastlseigh.github.io/?Chart=kit-de-séparateur-de-finition-brillante-pour-mini-cooper-s-dag-style-ver-2-1-fibre-de-carbone-diffuseur-arrière-sous-pare-chocs-arrière-uniquement-adapté-f56
https://eeastlseigh.github.io/?Chart=fosse-à-balles-avec-toboggan-piscine-à-balles-gonflable-blanche-équipement-de-jeu-souple-aire-de-jeux-extérieur
https://eeastlseigh.github.io/?Chart=machine-de-dénudage-de-fil-swt508max1-8n-8s-avec-le-redresseur-0-2-25mm2-câble-ligne-décapant-éplucheur-coupeur-outils-ordinateur-automatique
https://eeastlseigh.github.io/?Chart=maisto-voiture-de-sport-en-alliage-1-18-lamborghini-ghost-diablo-sv-modèle-de-collection-jouet-de-décoration-cadeau
https://eeastlseigh.github.io/?Chart=moule-à-gâteau-en-silicone-pour-femme-et-homme-6-pièces-pour-bonbons-sucre-fondant-pâte-de-gomme-outil-de-décoration-bonne-qualité-m8567
https://eeastlseigh.github.io/?Chart=mini-caméra-grand-capteur-1-imx183-2022-inspection-20mp-19-66fps-usb-3-0-mono-couleur-volet-roulant
https://eeastlseigh.github.io/?Chart=lampe-solaire-d-extérieur-en-forme-de-luciole-luminaire-décoratif-idéal-pour-une-pelouse-un-jardin-ou-une-cour-nouveau-modèle
https://eeastlseigh.github.io/?Chart=manteau-en-cuir-de-vachette-véritable-pour-hommes-coupe-couvertes-coréenne-veste-de-moto-courte-vêtements-pour-hommes-casprogressive-mascul37fcy-automne-nouveau
https://eeastlseigh.github.io/?Chart=écran-de-carte-lcd-prada-pour-toyota-fj-land-cruiser-module-de-voiture-cluster-de-points-numériques-système-linux-mise-à-niveau-12-3-pouces-2007-2019
https://eeastlseigh.github.io/?Chart=emerbly-gear-armure-linge-en-émail-à-dégagement-rapide-plaque-lylique-assault-équipement-militaire-de-l-armée-swat-sfp-airsoft-electrolux-w-roc-em7sedile
https://eeastlseigh.github.io/?Chart=électrovanne-d-arrêt-de-carburant-12v-mm409160-pour-moteur-mitsubishi-4dq-se
https://eeastlseigh.github.io/?Chart=ecmart-module-d-alimentation-igbt-de-haute-qualité-r500ch28
https://eeastlseigh.github.io/?Chart=évent-de-capot-latéral-en-fibre-de-carbone-de-style-r-pour-ford-mustang-2015-2016-2-pièces
https://eeastlseigh.github.io/?Chart=kit-de-montage-de-phare-antibrouillard-halogène-avec-couvercle-pour-ford-ranger-2012-2013-2014-4300k-blub-couvercle-faisceau-interrupteur
https://eeastlseigh.github.io/?Chart=lentille-de-rechange-pour-lunettes-de-ski-vision-nocturne-verres-éclaircissants-feuille-transparente-lentille-de-subdivision
https://eeastlseigh.github.io/?Chart=machine-à-glaçons-électrique-portable-générateur-refroidisseur-compresseur-pour-maison-bars-restaurants-magasins
https://eeastlseigh.github.io/?Chart=lampe-suspendue-en-clip-au-design-nordique-luminaire-décoratif-d-nik-idéal-pour-un-salon-ou-une-salle-à-manger-223
https://eeastlseigh.github.io/?Chart=kit-de-couverture-de-poussoir-de-billette-pour-dodge-1989-2002-cumservices-diesel-5-9l-6bt-bub12-v-24v-ram-tourists-port-ve44-p7100-pumps-2500-3500
https://eeastlseigh.github.io/?Chart=feu-de-jour-led-jaune-pour-tesla-modèle-3-2018-2019-2020-drl-clignotant
https://eeastlseigh.github.io/?Chart=garde-robe-multifonction-pliable-pleine-grandeur-pour-filles-armoire-de-chambre-d-hôtel-cisco-de-rangement-pour-vêtements-meubles-de-maison
https://eeastlseigh.github.io/?Chart=leavan-lampes-de-sauna-avec-lampe-d-angle-pour-international-9200-9400-5900-lh
https://eeastlseigh.github.io/?Chart=lecture-numérique-pour-fraiseuse-outils-de-mesure-de-haute-précision-tour-à-1-2-3-axes-vente-directe-d-usine
https://eeastlseigh.github.io/?Chart=g-t-gunze-u-s-g-25-panneau-d-écran-tactile-de-remplacement-pour-hmi-plc-numériseur-original
https://eeastlseigh.github.io/?Chart=faux-brouillard-électrique-cheminée-à-vapeur-d-eau-prix-d-usine-garantie-5-ans-3d
https://eeastlseigh.github.io/?Chart=injecteur-de-carburant-diesel-pour-la-verrerie-toyota-injecteur-de-carburant-dentaire-d-ftv-295050-0070-23670-30380
https://eeastlseigh.github.io/?Chart=easttop-harmonica-à-double-harmonica-avec-raie-pe20-t2-1s-instrument-de-musique-à-bouche-spéciale
https://eeastlseigh.github.io/?Chart=lame-de-pare-choc-arrière-avec-lumière-accessoire-de-voiture-en-fiber-de-carbone-pour-audi-a6-s6-sline-non-standard-2019-2021
https://eeastlseigh.github.io/?Chart=micro-appareil-de-pare-feu-hunmersible-mini-pc-opnsense-pc-de-routeur-d-explosion-rj49-aes-ni-i226-v-6-x-2-5gbe-hdmi-dp-usb3-2-type-c-tf
https://eeastlseigh.github.io/?Chart=jouet-anti-stress-en-acier-inoxydable-coulissant-edc-pour-bureau
https://eeastlseigh.github.io/?Chart=machine-à-souder-ce-ignorant-l-d-effets-noire-nitridée-3d
https://eeastlseigh.github.io/?Chart=jinan-rakoncnc-découpeur-laser-à-fibre-pour-tôle-d-acier-rc1530f-1000w-2000w
https://eeastlseigh.github.io/?Chart=eastkame-joli-mural-et-écran-tactile-pour-maison-intelligente-pour-système-knx-bon-prix
https://eeastlseigh.github.io/?Chart=machine-de-thérapie-par-ondes-de-choc-ed-à-énergie-réglable-traitement-par-ondes-de-choc-pour-tissus-mous-masseur-de-colonne-vertébrale-électrique-odorchiropratique
https://eeastlseigh.github.io/?Chart=kit-de-carrosserie-de-style-rz-en-fibre-de-carbone-jupe-de-lèvre-avant-queue-de-lèvre-arrière-adapté-pour-lamborghini-aventador-l700-mise-à-niveau
https://eeastlseigh.github.io/?Chart=mini-compresseur-pcp-4500psi-système-de-refroidissement-en-cours-d-exécution
https://eeastlseigh.github.io/?Chart=machine-à-laver-automatique-haute-pression-machine-à-laver-de-voiture-haute-puissance-220v-ferme-lavage-de-voiture-pompe-à-eau-artefact-de-magasin
https://eeastlseigh.github.io/?Chart=ensembles-de-meubles-multifonctionnels-de-luxe-pour-dortoir-lit-double-rangement-queen-pleine-taille-unique-et-moderne
https://eeastlseigh.github.io/?Chart=ensemble-d-embrayage-à-double-étage-pour-tracteur-foton-lovol-10-pouces-ft400-21b-011-tbseditb550-numéro-de-pièce-ft400-21b-011
https://eeastlseigh.github.io/?Chart=microphone-super-cardioïde-sans-fil-pour-performance-sur-scène-sm62-adapté-pour-shure-qlx-slx-icalx-corde-x-glx-tqg-4-broches-mini-ta4f-beltpack
https://eeastlseigh.github.io/?Chart=magicool-costumes-à-led-rvb-pour-femmes-jupe-lumineuse-soutien-gorge-vêtements-shoous-spectacle-sur-scène-masque-de-ballet-aile-de-danse-du-ventre-pour-la-performance
https://eeastlseigh.github.io/?Chart=moc-décennie-s-de-construction-modulaires-pour-enfant-briques-modèle-bat-signal-on-emprie-state-technologie-jouets-à-assembler-soi-même-cadeau
https://eeastlseigh.github.io/?Chart=kit-de-contrôleur-de-machine-de-découpe-plasma-starfeng-sf-2100c-système-cnc-hp105-torch-recommande-jykb-100-dc24v-t3-du-contrôleur
https://eeastlseigh.github.io/?Chart=jucaili-tête-d-impression-pour-imprimante-à-jet-d-encre-epson-stylus-pro-cabezal-dx7-original-3880-f177000-3800-3800c-3850-3890
https://eeastlseigh.github.io/?Chart=ensemble-d-outils-de-maintenance-multifonctions-pour-électricien-outil-complet-universel-isolé-vde-118-pièces
https://eeastlseigh.github.io/?Chart=lit-de-traction-cervicale-et-lombaire-pliable-médical-civière-cervicale-et-lombaire-portable-multifonctionnelle
https://eeastlseigh.github.io/?Chart=joli-de-démarrage-à-une-clé-pour-ebracite-pillar-320gc-526-5710-19005-323-336-330gc-345-313-526-5710
https://eeastlseigh.github.io/?Chart=écran-de-contrôle-pour-machine-de-retrait-de-tatouage-laser-nd-yag-4-3-pouces
https://eeastlseigh.github.io/?Chart=fusil-tactique-1-6x24-portée-d-usine-pour-le-sport-de-plein-air-et-la-chasse-hs1-0408
https://eeastlseigh.github.io/?Chart=étagères-de-bout-de-table-de-nuit-rangement-de-lampe-côté-bureau-meldesk-armoire-japonaise-proximité-des-wers-table-de-rangement-moderne-meubles-de-maison-t50cg
https://eeastlseigh.github.io/?Chart=lecteur-de-voiture-android-auto-carplay-radio-1-din-pour-mf-iti-écran-6-86-unité-principale-stéréo-autoradio-navigation
https://eeastlseigh.github.io/?Chart=machines-et-équipements-agricoles-jy-bsgr-400-station-de-référence-portable
https://eeastlseigh.github.io/?Chart=machine-à-chauffer-le-fromage-en-demi-cercle-appareil-pour-fondre-le-fromage
https://eeastlseigh.github.io/?Chart=ecran-oled-intérieur-pour-bulldozer-et-chargeur-hydraulique-avec-capteurs-de-tension-de-température-et-de-pression-1-14
https://eeastlseigh.github.io/?Chart=justn183-autoradio-qled-pour-mitsubishi-lancer-2014-2016-android-limitation-lecteur-vidéo-gps-dsp-navigation-carplay-4g-wifi-bt
https://eeastlseigh.github.io/?Chart=ensemble-de-housses-de-siège-de-voiture-pour-kia-sportage-rio-4-sorento-cerato-ceed-rio-3-sportage-2019-soul-picanto-carnaval-mazda-3-6-cx5-6
https://eeastlseigh.github.io/?Chart=ensemble-de-pompe-à-eau-pour-yanmar-pièces-de-réparation-de-moteur-accessoires-avec-garantie-de-3-mois-119660-42004-3tna72-3tna72l-3tnv72-3tne74
https://eeastlseigh.github.io/?Chart=lumière-de-eau-à-rouleaux-5r-7r-200w-230w-en-ventes
https://eeastlseigh.github.io/?Chart=microphone-sans-fil-chant-pour-performance-sur-scène-système-uhf-parlant-ensembles-de-transmetteur-avec-microphone-musical-d-instruments-pour-bodypack
https://eeastlseigh.github.io/?Chart=module-de-communication-à-tube-rf-micro-ondes-haute-puissance-version-pcb-démontage-blf278-blf278c
https://eeastlseigh.github.io/?Chart=microphone-de-toit-en-fibre-de-carbone-group-pour-mercedes-benz-w176-classe-a-a250-a45-a180-a200-jas-2013-2018
https://eeastlseigh.github.io/?Chart=garde-boue-universel-pour-toutes-les-voitures-garde-boue-garde-boue-suv-camion-toyota-honda-ford-bmw-mercedes-audi-4-pièces
https://eeastlseigh.github.io/?Chart=moto-électrique-de-haute-qualité-vitesse-maximale-de-52-km-h-1200w-oem-d-usine
https://eeastlseigh.github.io/?Chart=ensemble-de-stylos-de-tatouage-de-machine-à-tatouer-apprentissage-personnel-bricolage-alimentation-équipement-d-usine-de-broderie-chaud
https://eeastlseigh.github.io/?Chart=garniture-d-aération-de-pare-chocs-arrière-de-voiture-fibre-de-carbone-sèche-canards-latéraux-de-course-bwm-série-2-g87-m2-coupé-2-portes-2022-2023
https://eeastlseigh.github.io/?Chart=fil-électrique-8awg-10awg-câble-de-bande-led-2468-fil-électrique-pvc-cuivre-rouge-noir-câble-d-extension-pour-panneau-solaire-15-m-30m
https://eeastlseigh.github.io/?Chart=étui-de-phare-arrière-pour-ford-fusion-2013-2016-mondeo-phare-led-drl-frein-parc-feu-de-signalisation
https://eeastlseigh.github.io/?Chart=moniteur-de-vidéosurveillance-dvr-hybride-7-pouces-déterminer-ip65-étanche-à-la-poussière-et-à-l-eau-1080p-tvi-cvi-ahd-cvbs
https://eeastlseigh.github.io/?Chart=nicecnc-couvercle-de-protection-de-calandre-en-aluminium-pour-motocross-pour-ktm-125-500-xcw-xcfw-exc-exc-f-tpi-17-20-125-500-xc-xcf-sx
https://eeastlseigh.github.io/?Chart=dynamoteur-d-urgence-à-manivelle-haute-puissance-générateur-de-charge-usb-camping-en-plein-air-banque-d-alimentation-de-survie
https://eeastlseigh.github.io/?Chart=jupe-d-été-en-jean-coupe-trapèze-taille-haute-tenue-assortie-avec-tout
https://eeastlseigh.github.io/?Chart=kit-complet-de-carénages-abs-noir-kit-de-travail-de-batterie-adapté-pour-suzuki-600-750-k8-2008-2009-2010-08-09-10-nouveau
https://eeastlseigh.github.io/?Chart=for-hp-105-5518cx-5437cx-5418cn-ipisb-sm-672233-001-original-all-in-one-motherboard-perfect-test-good-quality
https://eeastlseigh.github.io/?Chart=f940got-swd-e-d-écran-tactile-nouveau-dans-la-boîte-12-mois-de-garantie-expédition-rapide
https://eeastlseigh.github.io/?Chart=machine-de-gravure-et-de-mathiation-au-laser-tbk-958f-20w-pour-8x12-14-pro-max-réparation-élimination-de-la-vitre-arrière-de-l-iphone-cassé
https://eeastlseigh.github.io/?Chart=erikc-injecteur-diesel-denso-095000-5361-pour-moteur-isuzu-7-8-l-modèle-de-véhicule-6hk1
https://eeastlseigh.github.io/?Chart=kit-de-carrosserie-de-moto-pour-suzuki-gspoly-plaque-de-protection-en-plastique-accessoires-de-carénage-coque-décoration-r-z-s60707-600-750-2006-2007
https://eeastlseigh.github.io/?Chart=haute-qualité-tapis-de-sol-de-voiture-spéciaux-personnalisés-tapis-imperméables-durables-conduite-à-droite-kia-sorento-mq4-2024-2022-5-ec
https://eeastlseigh.github.io/?Chart=module-optique-cwdm-sfp-émetteur-récepteur-10g-40km-1470-1610nm-sfp-compatible-avec-ibm-connecteur-lc-fonction-ddm
https://eeastlseigh.github.io/?Chart=machine-à-glaçons-commerciale-pour-vigne
https://eeastlseigh.github.io/?Chart=écran-lcd-ips-15-6-pouces-avec-châssis-pour-ordinateur-portable-xiaomi-mi-air-pro-1920-pouces-1080-x-nv156fhm-n61-15-6
https://eeastlseigh.github.io/?Chart=la-g521p-de-carte-mère-d-ordinateur-portable-utilisé-pour-acer-aspire-5-a515-52-a515-52g-avec-i5-8265u-entièrement-testé-100-travail
https://eeastlseigh.github.io/?Chart=jumelles-rechargeables-numériques-à-vision-nocturne-infrarouge-professionnelle-télescope-pour-la-chasse-et-le-camping-n-aime-8x-4-5-pouces-1080p-300m
https://eeastlseigh.github.io/?Chart=mtstar-caméra-de-surveillance-extérieure-ptz-hd-4k-8mp-2022-p-dispositif-de-sécurité-sans-fil-étanche-avec-vision-nocturne-et-système-infrarouge-30x-100m
https://eeastlseigh.github.io/?Chart=équipement-de-fitness-en-plein-air-jambe-à-quatre-chiffres-commandée
https://eeastlseigh.github.io/?Chart=moc-décennie-s-de-construction-de-voiture-d-escalade-en-plein-air-tout-terrain-4tage-baja-application-de-véhicule-technique-télécommande-course-avec-dissolvant-ensemble-de-jouets-cadeaux-pour
https://eeastlseigh.github.io/?Chart=lampe-solaire-imperméable-d-extérieur-éclairage-d-ambiance-pour-pelouse-jardin-terrasse
https://eeastlseigh.github.io/?Chart=lit-carré-en-peluche-super-doux-pour-animaux-de-compagnie-lit-apaisant-artefact-de-couchage-confortable-pleine-taille-calme-nouveau-8
https://eeastlseigh.github.io/?Chart=écran-android-hd-pour-honda-accord-9-autoradio-stéréo-carplay-bluetooth-unité-principale-affichage-dsp-mise-à-niveau-audio-limitation
https://eeastlseigh.github.io/?Chart=nexas-outil-de-diagnostic-de-voiture-pour-camion-diesel-nlimport-p-rapduty-eau-obd-2-régulateur-métalp-f-cristal-de-l-huile-étalonnage-du-capteur-2023
https://eeastlseigh.github.io/?Chart=kowell-feu-antibrouillard-led-pour-vw-volkswagen-tiguan-l-2017-2018-drl-feu-de-signalisation-pour-voiture
https://eeastlseigh.github.io/?Chart=lot-de-125-sacs-de-strass-correcteurs-à-chaud-couleur-ab-ss16-dmc-par-ups
https://eeastlseigh.github.io/?Chart=ebaccessrespiration-pompe-à-carburant-électronique-aspiration-pompe-à-huile-pilier-anthracite-cat-e312-320-323-329-330-coordonnées-336f
https://eeastlseigh.github.io/?Chart=group-blouse-brodée-à-manches-longues-pour-femmes-chemises-élégantes-chemisiers-vintage-printemps-été-100
https://eeastlseigh.github.io/?Chart=inaler-cartouche-de-filtre-à-eau-28634-gal-h-220v-avec-prise-3-broches-pour-piscine-familiale-été
https://eeastlseigh.github.io/?Chart=jambe-de-force-avant-droite-pour-2004-2011-audi-a6-avant-c6-3-0-tdi-tfsi-3-2-fsi-4-2-fsi-4-2-rs6-s6-quattro-4f0616040aa
https://eeastlseigh.github.io/?Chart=injecteur-de-carburant-pour-moteur-diesel-volvo-unité-électronique-bebe4c08001-3829087-3803637-3829087
https://eeastlseigh.github.io/?Chart=f-nex-bachira-meguru-bluelock-figurine-d-action-en-pvc-modèle-de-jouets-collection-de-beurres-cadeau-authentique-19cm-1-7-en-stock
https://eeastlseigh.github.io/?Chart=générateur-de-puissance-portable-charge-de-téléphone-portable-haute-puissance-petit-manuel-extérieur-ménage
https://eeastlseigh.github.io/?Chart=kit-de-réparation-de-joints-de-piston-modifiés-joints-de-moteur-à-essence-overcarlrepair-audi-a4-a5-horizon-a7-a8-q5-q7-vw-touareg-3-0tsi-tfsi-caka-ccba-caalbany
https://eeastlseigh.github.io/?Chart=holed-système-de-douche-mural-avec-affichage-numérique-de-la-température-constante-pluie-de-massage-pulvérisation
https://eeastlseigh.github.io/?Chart=horloge-murale-silencieuse-de-haute-qualité-100-pièces-lot-mécanisme-de-mouvement-à-quartz-avec-crochet-horloge-à-quartz-heure-minute-seconde
https://eeastlseigh.github.io/?Chart=ms-1758-de-carte-mère-d-ordinateur-portable-pour-gelée-ge70-gp70-ms-17581-rev-1-1-intégré
https://eeastlseigh.github.io/?Chart=feu-antibrouillard-pour-volkswagen-vw-tiguan-2017-2018-2019-drl-2-pièces-feu-de-jour-avec-clignotant-jaune-8
https://eeastlseigh.github.io/?Chart=mini-aspirateur-de-voiture-portable-sans-fil-nettoyeur-d-intérieur-de-voiture-maison-bureau-nettoyage-du-clavier-livres-15000pa
https://eeastlseigh.github.io/?Chart=lecteur-carplay-haute-performance-avec-écran-tactile-bluetooth-navigation-cpu-hdr-android-7862-fuse-grand-voyager-5-2011-2015
https://eeastlseigh.github.io/?Chart=machine-à-crêpe-à-gaz-à-double-tête-fabrication-de-crêpes-moules-eld-ake-santé-vie-commerciale
https://eeastlseigh.github.io/?Chart=microphone-portable-sans-fil-g-mark-x-440-4-canaux-corps-en-métal-batterie-au-lithium-avec-valise-50-m
https://eeastlseigh.github.io/?Chart=lits-pliants-multifonctionnels-pour-adultes-matelas-de-camping-au-sol-lits-pliants-modernes-meubles-simples-bl50am
https://eeastlseigh.github.io/?Chart=enregistreur-vidéo-dvr-de-voiture-caméra-de-tableau-de-bord-caméra-hd-4k-facile-à-installer-adapté-pour-mercedes-benz-gle350-w167-gle-2018-2019-2022
https://eeastlseigh.github.io/?Chart=glamor-drum-ensembles-de-tambours-musicaux-portable-moderne-professionnel-série-cs-kits-de-batterie
https://eeastlseigh.github.io/?Chart=kits-de-carrosserie-pour-pick-up-hilux-revo-couverture-de-pare-chocs-arrière-2015-2016-2017
https://eeastlseigh.github.io/?Chart=g1m-5300p-d-alimentation-d-armoire-de-disque-réseau-de-300w
https://eeastlseigh.github.io/?Chart=injecteur-de-carburant-diesel-pour-toyota-1vd-ftv-land-cruiser-oem-23670-51070-23670-59055-095000-9840-23670-51070-095000-9840
https://eeastlseigh.github.io/?Chart=mélangeur-de-sang-à-rotation-économique-pour-tube-de-prélèvement-sanguin-360-disques-inclinables-avec-accessoires-à-vitesse-réglable-de-0-à-32-tr-min
https://eeastlseigh.github.io/?Chart=écran-de-projection-de-cinéma-maison-ust-alr-pet-partners-cadre-large-mur-gris-150-pouces-16-9-4-5cm-nouvelle-annonce
https://eeastlseigh.github.io/?Chart=meuble-tv-nordique-au-sol-lumière-d-exposition-moderne-minimstartsalon-muebles-hogar-décoration-intérieure
https://eeastlseigh.github.io/?Chart=fabriqué-en-chine-haute-qualité-prix-bas-mlf-20w-laser-marquage-machine-pour-métal-et-non-métal
https://eeastlseigh.github.io/?Chart=ms-16u11-d-origine-ver1-0-pour-gelée-ge65-gl65-gp65-gl75-ge75-gp75-ordinateur-portable-moalterboard-avec-i7-9750h-et-rtx2060m-test-ok
https://eeastlseigh.github.io/?Chart=machine-de-détatouage-laser-sans-douleur-3-en-1-épilateur-en-continu-rf-nd-yag-3-embouts-langue-oem
https://eeastlseigh.github.io/?Chart=lampe-led-3-7-64-couleurs-pour-benz-c-e-s-glc-w222-w213-w205-x253-mb-étui-à-lunettes-lampe-de-lecture-lumière-ambiante
https://eeastlseigh.github.io/?Chart=lustre-doré-post-moderne-nordique-éclairage-design-salle-à-manger-salon-décoration-d-intérieur
https://eeastlseigh.github.io/?Chart=écouteurs-intra-auriculaires-sans-fil-avec-dents-bleues-accessoires-de-jeu-pour-la-course-nouvelle-tendance
https://eeastlseigh.github.io/?Chart=ensemble-de-carénage-de-moto-kit-de-carrosserie-en-plastique-pour-suzuki-gsx-r600-r750-2008-2010-k8-k9-k10-accessoires-injection-tambours-travail-s0608-109a
https://eeastlseigh.github.io/?Chart=grandnavi-autoradio-à-écran-tactile-universel-carplay-sans-fil-android-stéréo-lecteur-dvd-ce-ips-tablette-carplay-7-pouces
https://eeastlseigh.github.io/?Chart=épingle-à-cravate-en-émail-de-haute-qualité-100-pièces-vente-en-gros-personnalisé-à-l-usine
https://eeastlseigh.github.io/?Chart=ensemble-de-capuchons-de-moyeu-central-de-roues-cache-poussière-argent-133-68078419ac-68078421ac-fiat-500-24-pièces-51884863mm-21
https://eeastlseigh.github.io/?Chart=montre-en-métal-fermé-couvercle-arrière-horloger-dédié-6173
https://eeastlseigh.github.io/?Chart=montre-mécanique-plaquée-or-18-carats-mouvement-seaghydr904-acier-inoxydable-2836-et-rett-40mm-esse-amplitude-28800-poids-166g
https://eeastlseigh.github.io/?Chart=grand-engrenage-biseauté-et-arbre-biseauté-d-entrée-en-spirale-pour-tracteur-foton-lovol-ft-254-référence-ft254-37f-127-et-ft254-37-144
https://eeastlseigh.github.io/?Chart=module-d-unité-de-commande-de-transmission-type-roumanie-tcu-7-vitesses-dsg-pour-0am-325-025d-pour-vw-audi-skoda
https://eeastlseigh.github.io/?Chart=le-fil-d-amortisseur-arrière-d-air-de-vtt-de-ao-38rc-de-chrm-commande-de-main-downhell-avec-la-bicyclette-de-montagne-de-verrouillage-partie-165-190-200-210mm
https://eeastlseigh.github.io/?Chart=meuleuse-d-angle-à-régulation-de-vitesse-haute-puissance-125-w-adaptée-au-meulage-et-au-polissage-des-métaux-machine-de-découpe-et-de-polissage-1450
https://eeastlseigh.github.io/?Chart=kit-de-carrosserie-en-fibre-de-carbone-sèche-pour-mercedes-benz-classe-g-wagon-g-w464-2019-style-b800-couverture-décorative-arrière-ze-garniture-extérieure
https://eeastlseigh.github.io/?Chart=indicateur-de-contrôleur-de-capteur-de-contrôle-de-niveau-de-réservoir-d-eau-à-distance-longue-distance-détection-sans-fil
https://eeastlseigh.github.io/?Chart=lustres-ronds-en-cristal-à-led-pour-salle-à-manger-salon-chambre-à-coucher-maison-intérieur-luminaires-luxe-moderne-chrome-or-lampes
https://eeastlseigh.github.io/?Chart=mini-gerbeur-manuel-électrique-à-chargement-automatique-monté-sur-camion-0-5t-8-5
https://eeastlseigh.github.io/?Chart=mini-ventilateur-turbo-violent-jet-polyvalent-batterie-spatirée-nouveau-26
https://eeastlseigh.github.io/?Chart=module-ipm-à-6-cellules-75a1200v
https://eeastlseigh.github.io/?Chart=hayon-électrique-intelligent-réaménagé-pour-mazda-cx30-2020-2022-neuf
https://eeastlseigh.github.io/?Chart=haute-qualité-spécial-personnalisé-tapis-de-sol-de-voiture-pour-audi-sq8-2023-2019-étanche-double-couches-tapis-pour-sq8-2021-livraison-gratuite
https://eeastlseigh.github.io/?Chart=kit-de-reconstruction-de-moteur-pour-caterpillar-3056-pièces-de-moteur-diesel
https://eeastlseigh.github.io/?Chart=fraise-en-carbure-de-tungstène-à-2-cannelures-boule-antarctique-en-acier-hrc-45-hrc55-hrc60-outils-de-coupe-indexables
https://eeastlseigh.github.io/?Chart=gazébo-pliant-pop-up-de-10x20-pieds-et-3x6m-grande-tente-publicitaire-pour-exposition-et-événement
https://eeastlseigh.github.io/?Chart=lampe-led-intelligente-24-7-wrgb-pour-croissance-de-poisson-éclairage-d-aquarium-à-spectre-complet-pour-plante-vivante-12-48-pouces
https://eeastlseigh.github.io/?Chart=gazebo-pop-up-base-13x13-10x10-c-sac-de-rangement-à-installation-rapide-conception-variée-tente-instantanée-avec-moustiquaire-europeenne
https://eeastlseigh.github.io/?Chart=moulinet-de-pêche-professionnel-en-métal-fronde-pliable-accessoires-de-camping-en-plein-air-kit-de-chasse-catapulte-de-tir-nouvelle-collection
https://eeastlseigh.github.io/?Chart=joint-d-arbre-mécanique-d-6-1cm-d-8-0cm-numéro-de-nom-470711
https://eeastlseigh.github.io/?Chart=indicateur-de-pesage-numérique-étanche-sans-fil-affichage-lcd-rs232-balance-au-sol
https://eeastlseigh.github.io/?Chart=jmey-chauffe-eau-électrique-instantané-3l-distributeur-d-eau-affichage-numérique-écran-lcd-pour-la-maison-et-le-bureau-nouveau
https://eeastlseigh.github.io/?Chart=montre-connectée-sn92-pour-hommes-bracelet-de-sport-de-plein-air-étanche-ip68-fréquence-cardiaque-suivi-de-la-santé-montre-intelligente-offre-spéciale-2023-pouces-nouveau-1-39
https://eeastlseigh.github.io/?Chart=jupe-courte-en-cuir-de-mouton-véritable-pour-femme-coupe-couvertes-jambe-large-streetwear-décontracté-coupe-botte-fjj-femme-printemps-nouveau
https://eeastlseigh.github.io/?Chart=inventaire-bm6a-c3-6kg-6b6-bm6a-c3-12kg-6b6-bm6a-c3-15kg-6b6-bm6a-c3-30kg-6b6-bm6a-c3-60kg-6b6-première-livraison-à-partir-de-l-usine
https://eeastlseigh.github.io/?Chart=microscope-trinoculaire-pour-bijoux-accessoires-amscope-10x-40x-microscope-stéréo-pour-bijoux-double-halogène
https://eeastlseigh.github.io/?Chart=manteau-surdimensionné-en-cuir-de-mouton-pour-les-amoureux-costume-mi-long-haut-silhouette-automne-hiver-nouveau
https://eeastlseigh.github.io/?Chart=montre-en-verre-sappaire-avec-revêtement-ar-pour-homme-convient-pour-rolex-cosmographe-dayrequiever-clip-116505
https://eeastlseigh.github.io/?Chart=kwaist-ony-autoradio-android-11-de-10-4-pouces-navigation-gps-dsp-4g-stéréo-lecteur-de-limitation-dvd-pour-voiture-mazda-6-mazda6
https://eeastlseigh.github.io/?Chart=jxmodel-grue-montée-sur-camion-tête-de-tracteur-machines-de-construction-télécommande-hydraulique-3-sections-pk40002eh-modèle-de-voiture-tamiya-1-14
https://eeastlseigh.github.io/?Chart=ensemble-de-carrosserie-de-spoiler-de-carénage-de-coque-imitation-fiber-de-carbone-adapté-pour-moto-yzf-r3-yzf-r3-r3m-r25-2019-2020-2021-rh12
https://eeastlseigh.github.io/?Chart=ne140qdm-ny2-v18-0-165hz-panel-display-matrix-14-0-en-effet-écran-lcd-ips
https://eeastlseigh.github.io/?Chart=mini-imprimante-thermique-sans-encre-sans-fil-machine-d-impression-mobile-durable-fournitures-scolaires-pour-journal-photo-a4
https://eeastlseigh.github.io/?Chart=film-en-céramique-nano-hd-bleu-pet-vlt-80-ir-suppression-uv-élevée-protection-solaire-pour-pare-brise-de-voiture-99
https://eeastlseigh.github.io/?Chart=four-winns-plateforme-de-natation-358v-pour-bateau-coq-oligfaux-mousse-teck-coussretours-de-sol-polymères
https://eeastlseigh.github.io/?Chart=hengyu-mélangeur-d-aliments-planétaire-sur-socle-en-acier-inoxydable-b8-b-8l-avec-personnalisation-d-usine
https://eeastlseigh.github.io/?Chart=module-wifi-stm32-marvell-8801-carte-de-développement-interface-sdio-spi-haute-vitesse
https://eeastlseigh.github.io/?Chart=ensemble-écran-tactile-lcd-5-5-pouces-qualité-aaa-pour-iphone-6-plus-5-pièces
https://eeastlseigh.github.io/?Chart=lifewit-bureau-de-courtoisie-avec-prise-de-courant-table-de-maquillage-blanche-avec-miroir-et-lumières-3-modes-d-éclairage-luminosité-réglable
https://eeastlseigh.github.io/?Chart=machine-d-injection-de-noyau-de-bouffée-et-injecteur-de-crème-machine-de-remplissage-de-crème
https://eeastlseigh.github.io/?Chart=lecteur-mp5-de-voiture-mirror-link-carplay-sans-fil-android-auto-7-1-din-écran-tactile-4-caméras-led-retrackable-manuellement-am-fm-bluetooth
https://eeastlseigh.github.io/?Chart=lampe-led-suspendue-en-clip-au-design-nordique-rétro-luminaire-décoratif-de-plafond-style-industriel-vintage
https://eeastlseigh.github.io/?Chart=fiviolet-pédale-d-eau-de-bateau-épaissie-à-double-couche-petite-équation-de-dessin-animé-tourisme-de-croisière-de-parc-jouer
https://eeastlseigh.github.io/?Chart=genp-pompe-à-carburant-électrique-pour-audi-système-de-carburant-assemblage-technique-horizon-qufreshdock-2005-2011-3-0l-oem-4f0919051bd-4f0-919-051-bd-nouveau
https://eeastlseigh.github.io/?Chart=jupes-latérales-de-voiture-en-fibre-de-carbone-kits-de-carrosserie-spomicrophone-pare-chocs-à-4-portes-tablier-pour-romeo-gigreg-sedan-style-mtc-2-pièces
https://eeastlseigh.github.io/?Chart=mir-de-rangement-simple-pour-vêtements-sales-étagère-de-délégations-pliable-parfait-pour-la-maison
https://eeastlseigh.github.io/?Chart=lecteur-de-voiture-android-auto-carplay-8-pouces-2-din-mp5-golf-5-6-jetta-mk5-mk6-tiguan-cc-passat-6company-035187b
https://eeastlseigh.github.io/?Chart=kit-de-traitement-en-studio-avec-icrophone-de-25mm-de-densité
https://eeastlseigh.github.io/?Chart=esports-chaises-ergonomiques-pour-dortoir-canapés-confortables-pour-étudiant-bureau-et-salon
https://eeastlseigh.github.io/?Chart=lunette-de-protection-inférieure-de-porte-pour-toyota-rav4-année-2013-19
https://eeastlseigh.github.io/?Chart=for8-5-partie-la-pompe-hydraulique-de-69101-corner00a-pour-nissan-1kitchenware-k21-qd32-pièces-authentiques-smg1a-30r021
https://eeastlseigh.github.io/?Chart=jiuyin-autoradio-android-navigation-gps-lecteur-vidéo-sans-dvd-2-din-pour-kia-rio-4-2016-2019
https://eeastlseigh.github.io/?Chart=jeu-de-roues-de-vélo-pliantes-cnc-349-8-9-10-11-vitesses-roulement-scellé-moyeu-disque-frein-en-v-pour-bromsilice
https://eeastlseigh.github.io/?Chart=feux-de-sauna-de-voiture-pour-broderie-phare-led-feu-avant-drl-clignotant-angel-eyes-remplacement-de-l-objectif-du-budgétaire-2007-2010
https://eeastlseigh.github.io/?Chart=kit-de-carrosserie-pour-toyota-crown-12th-pare-chocs-avant-et-arrière-non-peints-assemblage-de-jupe-latérale-accessoires-de-voiture
https://eeastlseigh.github.io/?Chart=injecteur-de-carburant-diesel-0-0445110249-445-110-pour-bosch-ford-ranger-mazda-bt50-3-0l-4-pièces-nouveau-249
https://eeastlseigh.github.io/?Chart=gigabyte-carte-mère-de-jeu-b650m-aorus-elite-humanity-micro-atx-ddr5-2-m-2-pcie-5-0-usb-3-2-gen2x2-type-c-intel-2-5gbe-lan
https://eeastlseigh.github.io/?Chart=mini-imprimante-à-ruban-numérique-dc-pd32-d-estampage-à-chaud-d-imprimante-de-feuille-de-machine-d-impression-de-ruban-de-satin-de-digital
https://eeastlseigh.github.io/?Chart=électrovanne-à-synchronisation-variable-pour-honda-accord-l4-918007-2008-2012-l
https://eeastlseigh.github.io/?Chart=e-0371-pour-rétroviseur-extérieur-cavalier-mécanique-gauche-94-99
https://eeastlseigh.github.io/?Chart=nettoyeur-haute-pression-sans-fil-odorà-eau-outil-de-lavage-de-voiture-adapté-pour-le-jardin-les-livres-20000mah-60-bars
https://eeastlseigh.github.io/?Chart=luminaires-led-suspendus-en-cristal-et-métal-e14-luminaires-rétro-et-créatifs-cage-à-oiseaux-haute-qualité-110v-220v-luminaire-d-éclairage
https://eeastlseigh.github.io/?Chart=moomba-coussin-de-sol-de-pont-en-teck-en-fausse-mousse-eva-helix-swimstep-cockpit-boat-2017
https://eeastlseigh.github.io/?Chart=machine-de-thérapie-par-ondes-de-choc-pour-traitement-ed-portable-masseur-de-relaxation-linge-onde-de-choc-professionnelle-élimination-initiée-des-oto-300mj
https://eeastlseigh.github.io/?Chart=linda-della-robe-longue-plissée-à-imprimé-floral-vintage-pour-femmes-col-rond-fesse-gt-mode-de-créateur-été
https://eeastlseigh.github.io/?Chart=fibre-optique-annulaire-pour-machine-de-lipolyse-980nm-1470nm-accessoire-de-connecteur-sma905
https://eeastlseigh.github.io/?Chart=gt2056v-turbocompresseur-pour-nissan-navara-2-5l-de-yd25ddti-moteur-767720-0002-14411-eb70d
https://eeastlseigh.github.io/?Chart=machine-de-thérapie-laser-nd-yag-1000w-pour-détatouage-déformable-peeling-au-carbone-pour-salon-de-beauté-offre-spéciale
https://eeastlseigh.github.io/?Chart=éclairage-de-scène-dmxorgcontrol-à-tête-mobile-15-gobos-et-14-couleurs-effet-arc-en-ciel-pour-ix-club-bar-dj
https://eeastlseigh.github.io/?Chart=mini-table-de-comptoir-de-bar-en-acrylique-noir-et-blanc-chaises-hautes-d-extérieur-pour-mariage
https://eeastlseigh.github.io/?Chart=flotteur-de-piscine-gonflable-motif-flamant-rose-pour-adulte-île-de-natation-bateau-flottant-paon-jouets-aquatiques-pour-fête-sur-la-plage-matelas-à-air-6-pièces
https://eeastlseigh.github.io/?Chart=module-de-communication-intellenz-tout-neuf-expédition-rapide-emz9ino-4intellenz
https://eeastlseigh.github.io/?Chart=graveur-en-métal-portable-de-bureau-machine-de-gravure-et-de-marquage-plage-de-travail-190x120mm-écran-tactile-3-axes-traceur-en-cuivre-métallique
https://eeastlseigh.github.io/?Chart=lampe-de-signalisation-led-sans-fil-pour-intérieur-de-voiture-lumières-el-64-couleurs-streamer-rvb-arc-en-ciel-décoration-universelle-honda-envix-2014
https://eeastlseigh.github.io/?Chart=kit-solénoïde-de-transmission-pour-hyundai-kia-accent-tiburon-a4bf3-2000-on-99692-46313-22700-3x-6
https://eeastlseigh.github.io/?Chart=injecteur-de-carburant-pour-denso-isuzu-holden-moteur-095000-l-4jj1-garantie-3-mois-6980-98011604-8-095000-5-6983-4-pièces
https://eeastlseigh.github.io/?Chart=nato-speed-cvt-poulie-de-transmission-kit-de-roulement-oem-pour-nissan-sentra-chevrolet-transmission-drilitrin-jf015e-re0f11a
https://eeastlseigh.github.io/?Chart=haute-qualité-sans-danger-80-82-2021-2022-2023
https://eeastlseigh.github.io/?Chart=doudoune-patchwork-en-laine-chaude-pour-femme-hiver-adt
https://eeastlseigh.github.io/?Chart=fox-lampe-de-poche-portable-étanche-à-énergie-solaire-avec-haut-parleur-radio-power-bank-pour-tente-de-fête-camping
https://eeastlseigh.github.io/?Chart=natureifa-cuisinière-à-gaz-pliante-à-double-feu-ustensiles-de-cuisine-ultralégers-puissance-de-feu-réglable-camping-en-plein-air-pique-nique-barbecue-2300w
https://eeastlseigh.github.io/?Chart=écran-tactile-stéréo-automatique-android-pour-mazda-5-9-pouces-4g-wifi-autoradio-limitation-vidéo-navigation-gps-ips-2005-2010
https://eeastlseigh.github.io/?Chart=jcdg-projecteur-de-lumière-led-cob-haute-puissance-200w-éclairage-de-scène-dmx-blanc-chaud-idéal-pour-une-fête-de-noël-une-danse-ou-un-cinéma
https://eeastlseigh.github.io/?Chart=écran-tactile-lcd-fhd-ips-de-remplacement-pour-ordinateur-portable-15-6-pouces-nv156fhm-t01-nv156fhm-t01-v8-0-1920x1080-40-broches-edp
https://eeastlseigh.github.io/?Chart=feux-de-voiture-pour-mitsubishi-lancer-evo-2008-2018-led-rvb-avec-safey-feux-de-sauna-assemblage-plug-play-drl-clignotants-feux-avant
[...]
https://eeastlseigh.github.io/?Chart=feu-arrière-pour-bmw-série-g20-g28-3-2020-2022-feu-de-recul-pour-voiture
https://eeastlseigh.github.io/?Chart=maison-générateur-solaire-1200-watts-lifepo4-batterie-960wh-prend-en-charge-la-fonction-d-ups-contient-des-panneaux-solaires
https://eeastlseigh.github.io/?Chart=jouet-d-étiquette-laser-infrarouge-pour-garçons-et-filles-jeu-d-équipe-activité-de-groupe-jouet-amusant-intérieur-et-extérieur-cadeaux-de-noël-6-à-12-ans-4-ensembles
https://eeastlseigh.github.io/?Chart=group-ordinateur-portable-carte-mère-pour-gelée-ge70-ordinateur-portable-carte-mère-pc-ms-1757-ms-17571-livraison-gratuite
https://eeastlseigh.github.io/?Chart=machine-de-découpe-laser-à-fiber-3015-découpeuse-cnc-pour-métal-acier-inoxydable-fer-générateur-laser-raycus-ipg
https://eeastlseigh.github.io/?Chart=feux-de-circulation-4d-pour-mercedes-benz-classe-gle-gls-gle350-gls450-w167-x167-2020
https://eeastlseigh.github.io/?Chart=neje-mini-machine-à-graver-au-laser-30w-master-2s-plus-entrepôt-européen-livraison-directe-graveur-de-découpe-cnc-bricolage
https://eeastlseigh.github.io/?Chart=manteau-en-fourrure-de-laine-double-face-pour-femme-nouveau-manteau-haut-de-gamme-avec-manches-cape-adt-automne-et-hiver-2023
https://eeastlseigh.github.io/?Chart=mascotte-de-chien-en-peluche-d-imitation-de-fourrure-de-haute-qualité-costume-de-dessin-animé-de-marche-taille-adulte-cadeau-de-fête-d-anniversaire-et-de-vacances-060
https://eeastlseigh.github.io/?Chart=étagère-à-livres-sur-pied-t1-pour-enfants-et-adultes-bibliothèque-de-salon-étagère-à-livres-affichage-360-rangement-à-5-niveaux-meubles-de-maison
https://eeastlseigh.github.io/?Chart=enquêter-arrière-sans-ampoule-pour-vw-caddy-2k1-2016-2017-2018-2019-2020-style-de-voiture
https://eeastlseigh.github.io/?Chart=lhd-nouveau-support-de-direction-assistée-de-haute-qualité-pour-voiture-toyota-land-cruiser-série-95-kzj
https://eeastlseigh.github.io/?Chart=filles-chantant-en-cristal-orange-diversifié-yoga-réduction-soulignée-thérapie-sonore-persch-musique
https://eeastlseigh.github.io/?Chart=jcid-aixun-station-de-soudage-intelligente-avec-fer-à-souder-t3a-t3b-t115-t245-t210-poignée-pointes-de-soudage-pour-pcb-smd-bga-réparation
https://eeastlseigh.github.io/?Chart=mini-stérilisateur-à-autoclave-vertical-contrôlé-par-micro-ordinateur-pls-ls-28hd
https://eeastlseigh.github.io/?Chart=kmc-vélo-de-route-x11tt-vélo-de-vitesse-jo11-liens-colorés-jofor-shimano-sram-vtt-équipement-de-vélo-original-jo118
https://eeastlseigh.github.io/?Chart=kit-de-carrosserie-de-voiture-de-style-étoilé-rs4-matériau-pp-pare-chocs-avant-modifié-automatique-avec-tissu-pour-audi-a4-b9-s4-kit-de-carrosserie-nouveau-style-2017-2019
https://eeastlseigh.github.io/?Chart=kit-de-carrosserie-aug-pour-ferrari-f8-novitec-kit-de-sport-arrière-jules-en-fibre-de-carbone-e105
https://eeastlseigh.github.io/?Chart=moder-plafonnier-led-en-forme-de-bulles-de-verre-chromé-luminaire-décoratif-d-intérieur-idéal-pour-un-salon-ou-une-chambre-à-coucher
https://eeastlseigh.github.io/?Chart=garmin-fenix-7s-sapphire-solar-advanced-multisport-gps-watch-vente-en-t-pour-salle-de-bain-get-4-free-vente-en-été-nouveau-50-50
https://eeastlseigh.github.io/?Chart=mini-machines-à-laver-portables-pliables-avec-centrifugeuse-sèche-illant-pour-vêtements-voyage-touristique-maison-chaussettes-soutien-gorge-petit-lave-sous-vêtements-25l
https://eeastlseigh.github.io/?Chart=écran-tactile-lcd-led-13-3-pouces-fhd-pour-hp-envy-13-ar-13-ar-tpn-w141-ar0030ac-assemblage-complet
https://eeastlseigh.github.io/?Chart=ensemble-de-volant-en-cuir-et-fiber-de-carbone-pièce-de-rechange-pour-vw-golf-mk7-gti-2014-2019
https://eeastlseigh.github.io/?Chart=kit-de-carénage-en-plastique-abs-pour-yamaha-yzf-r6-1998-1999-2000-2001-2002-bleu-blanc-tambour-travail-carénages-set-yzfr6-98-02-vélo-de-reconstruction
https://eeastlseigh.github.io/?Chart=machine-de-soudage-au-laser-à-fibre-portable-soudeuses-3-en-1-découpeuse-de-livres-2000w-déterminer
https://eeastlseigh.github.io/?Chart=étagère-d-angle-murale-en-bois-bibliothèque-au-sol-étagère-à-spe-psychà-échafales-bureau-appartement-étudiant-rangement-domestique-t1
https://eeastlseigh.github.io/?Chart=écran-lcd-industriel-de-qualité-a-10-4-pouces-lta104s2-l01-testé-ok-garantie-d-un-an-original
https://eeastlseigh.github.io/?Chart=lampe-de-garniture-de-lumière-de-sauna-automatique-couvercle-de-lumière-eyebloggsauna-décoration-de-garniture-autocollant-accessoires-pour-bmw-série-3-e92-e93-2006-2012-10-paires
https://eeastlseigh.github.io/?Chart=ln007006-câble-plaqué-argent-pour-écouteurs-et-écouteurs-16-cœurs-occ-pour-sauna-pour-support-dynamique-t5p-ii-amidepository-home-broche-3-5mm
https://eeastlseigh.github.io/?Chart=ensemble-de-carénage-moto-kit-carrosserie-plastique-pour-yamaha-yzf-r1-yzf-r1-2002-2003-02-03-accessoires-tambours-complets-travail-noir
https://eeastlseigh.github.io/?Chart=evkey-panneau-d-affichage-arrière-pour-modèles-y-et-3-panneau-d-affichage-arrière-commande-de-climatiseur-accessoires-de-placement-limitation-2024
https://eeastlseigh.github.io/?Chart=ensemble-deux-pièces-pour-femme-vêtements-d-automne-jogging-décontracté-tenue-à-manches-longues-leggings-vente-en-gros
https://eeastlseigh.github.io/?Chart=imprimante-graveur-laser-usb-1500mw-petit-bureau-savoir-à-chaud
https://eeastlseigh.github.io/?Chart=freddie-mercury-peinture-à-l-huile-originale-de-la-reine-des-bandes-rock-roll-velours-noir-100-fait-à-la-main
https://eeastlseigh.github.io/?Chart=module-de-communication-usb11a-usb-vers-rs485-module-08248311
https://eeastlseigh.github.io/?Chart=kit-de-réparation-d-actionneur-électronique-de-voiture-turbo-toyota-hilux-3-0ld-kzn130-verrerie-z-t-d-ftv-17201-0l040-17201-30110-9
https://eeastlseigh.github.io/?Chart=écran-tactile-industriel-lcd-carré-10-4-pouces-1000nits-moniteur-capacitif-pour
https://eeastlseigh.github.io/?Chart=ne160wum-n61-ne160wum-n61-écran-lcd-pour-ordinateur-portable-16-pouces-écran-lcd-sans-contact-panneau-ips-fin-fhd-1920x1200-edp-30-broches-60hz
https://eeastlseigh.github.io/?Chart=maxtenso-3-2kw-moteur-à-broche-refroidi-à-l-eau-105mm-er20-broche-de-fraisage-220v-380v-4-roulements-gdz105-3-2-coupe-gravure-24000-tr-min
https://eeastlseigh.github.io/?Chart=doudoune-longue-taille-2023-votre-hiver-n-est-pas-froid
https://eeastlseigh.github.io/?Chart=la-g161p-w-srf6u-i7-9750h-cpu-nbq4v11002-pour-acer-predator-triton-900-p917-71-ordinateur-portable-carte-mère-n18e-g3-a1-rtx2080-100-testé
https://eeastlseigh.github.io/?Chart=leuze-electronic-kba-printing-machine-accessories-ka-958b-feida-electric-eye-inquiry
https://eeastlseigh.github.io/?Chart=machinist-kit-de-carte-mère-x99-lga-2011-3-xeon-e5-2678-v3-processeur-cpu-ddr4-2-8-go-de-mémoire-ram-nvcloser-smim-2-usb3-0-rs9-m-atx
https://eeastlseigh.github.io/?Chart=mini-pêche-télescopique-portable-en-fibre-de-carbone-rivière-filature-add1s785-le-plus-récent
https://eeastlseigh.github.io/?Chart=kit-de-connecteurs-de-fiber-optique-simplex-mulitmode-200-pièces-avec-frerrul-pré-assemblage-rohs-livraison-gratuite
https://eeastlseigh.github.io/?Chart=gels-pi-bpi-m5-facades-core-cortex-a55-2-0xxghz-processeur-amlogic-s905bery-lpddr4-et-16-go-emmc-gigabit-bpi-m5-de-boîtier-en-option
https://eeastlseigh.github.io/?Chart=fibre-patch-rette-e2000-lc-lc-e2000-upc-sm-simsake-goodftth-100m-150m-200m-250m-300m-350m-400m-500m-600m-800m
https://eeastlseigh.github.io/?Chart=machine-de-raffinage-du-métal-à-haute-température-2-en-1-équipement-de-fusion-sous-vide-outils-de-réflexion-et-d-investissement-de-bijoux-2l
https://eeastlseigh.github.io/?Chart=fontaine-d-eau-de-style-chinois-pour-l-extérieur-décoration-feng-shui-paysage-de-fortune-jardin-cour-de-villa
https://eeastlseigh.github.io/?Chart=nettoyeur-ultrasonique-en-acier-inoxydable-304-mini-lave-vaisselle-portable-lave-linge-domestique-220v-30l
https://eeastlseigh.github.io/?Chart=hailong-batterie-pour-vélo-électrique-48v-20ah-étui-avec-prise-usb-xt60-kit-de-conversion-pour-moteur-18650-500-w-bafang-1000
https://eeastlseigh.github.io/?Chart=jh-coussin-de-montage-de-moteur-élément-transversal-droit-pour-mitsubishi-shogun-pajero-pinin-montero-io-h67w-h76w-4g94-mr510313-1093a008
https://eeastlseigh.github.io/?Chart=machine-à-graver-l-or-g8-équipement-de-bijouterie
https://eeastlseigh.github.io/?Chart=esmart3-contrôleur-de-charge-mppt-pour-panneaux-solaires-12-24-36-48v-avec-rétroéclairage-lcd-automatique-rs485-wi-fi-contrôle-mobile-40-60a
https://eeastlseigh.github.io/?Chart=haut-parleur-bluetooth-portable-tws-caisson-de-basses-boîte-de-son-fonction-étanche-bureau-extérieur-lecteur-domestique-noir-40w-7
https://eeastlseigh.github.io/?Chart=faux-cils-longs-en-vison-naturel-3d-2000-paires-maquillage-extension-pour-les-yeux-beauté
https://eeastlseigh.github.io/?Chart=fayon-machine-à-plastifier-à-froid-automatique-compresseur-d-air-grand-format-1-6m
https://eeastlseigh.github.io/?Chart=lecteur-de-voiture-sans-fil-android-13-carplay-navigation-automatique-78powered-c-bmw-série-1-e81-e82-e87-e88-at-2004-2012
https://eeastlseigh.github.io/?Chart=kit-de-carrosserie-pour-bmw-x6-e71-2008-2014-injection-pp-kit-de-carrosserie-large-pour-bmw-x6-e71-kit-de-carrosserie-pour-bmw-x6-e71
https://eeastlseigh.github.io/?Chart=meuble-tv-rétractable-en-marbre-de-luxe-doux-rangement-créatif-au-sol-design-poumons
https://eeastlseigh.github.io/?Chart=machine-à-lait-de-soja-portable-ju479-mélangeur-automatique-rupture-murale-chauffage-cuisson-orange-110v-220v
https://eeastlseigh.github.io/?Chart=kit-de-carénage-de-moto-pour-yamaha-yzfr1-injection-de-moto-kit-de-carénage-personnalisé-moteur-yzf-r1-19-20-21-22-2019-2020-2021-2022
https://eeastlseigh.github.io/?Chart=mathiateur-d-huile-essentielle-et-de-gaz-noyau-de-séparation-séparateur-d-eau-alimentation-0260706001
https://eeastlseigh.github.io/?Chart=machine-à-cercler-en-plastique-pp-jd13-16-machine-à-cercler-portative-outils-à-piles
https://eeastlseigh.github.io/?Chart=machine-de-cimentation-de-semelle-intérieure-de-chaussure-de-colle-jaune-de-rouleau-de-fer-sac-de-rouleau-dur-de-puissance-collage-exécutif
https://eeastlseigh.github.io/?Chart=machine-de-découpe-de-précision-intelligente-cloud-pour-iphone-et-ipad-verre-avant-couverture-arrière-film-hydrogel-temps-de-coupe-mf-ite-mécanique-m880
https://eeastlseigh.github.io/?Chart=moyeu-de-vélo-en-arc-36-trous-roulement-scellé-nbk-accessoires-de-vélo-de-montagne-hg-xd-ms-8-9-10-11-12-vitesses-6-griffes-114t-clic
https://eeastlseigh.github.io/?Chart=écran-lcd-industriel-12-1-pouces-garantie-d-un-an-original
https://eeastlseigh.github.io/?Chart=housses-de-siège-de-voiture-en-cuir-microcarence-housse-de-coussin-accessoires-intérieurs-pour-suzuki-jimny-isabel-4-jb64-jb74-2019-2023
https://eeastlseigh.github.io/?Chart=marchepied-latéral-nerf-bar-pour-porsche-broderie-pédale-partners-2011-2017-2-pièces-8
https://eeastlseigh.github.io/?Chart=machine-de-karaoké-rhm-2-microphones-sans-fil-haut-parleur-à-batterie-aste-système-de-haut-parleur-pa-portable-avec-bluetooth-aux-usb-sd
https://eeastlseigh.github.io/?Chart=encre-pigmentée-universelle-9-couleurs-lot-1000ml-pour-imprimante-epson-p6000-p7000-surecolor-p6000-p7000-p8000-p9000
https://eeastlseigh.github.io/?Chart=mangeoire-intelligente-automatique-pour-animaux-de-compagnie-bol-en-acier-inoxydable-distributeur-de-nourriture-minuterie-vocale-contrôle-wi-fi-convient-aux-chiens-et-aux-chats
https://eeastlseigh.github.io/?Chart=jante-de-voiture-forgée-roue-en-alliage-de-19-pouces-5x112
https://eeastlseigh.github.io/?Chart=hidizs-mini-hifi-usb-c-sound-audio-radiator-medals-écouteurs-casque-sauna-amplificateur-de-téléphone-adaptateur-balchows-4-4mm-à-2-5mm-dh80s
https://eeastlseigh.github.io/?Chart=lèvre-de-pare-chocs-arrière-en-fibre-de-carbone-version-artisan-lèvre-arrière-pour-lexus-rc200-2018-kit-de-carrosserie-2020-300
https://eeastlseigh.github.io/?Chart=kit-carrosserie-pare-chocs-avant-pour-mercedes-benz-classe-c-couvercle-séparateur-jupe-latérale-grille-de-course-spo-microphone-arrière-w206-2022-2023
https://eeastlseigh.github.io/?Chart=kit-de-carénages-abs-pour-bmw-kit-de-travail-de-batterie-rouge-et-argent-s1000rr-2009-2010-2011-2012-2013-2014-user-ins-4-09-10-11-12-13-14-nouveau
https://eeastlseigh.github.io/?Chart=lampe-led-suspendue-en-verre-gris-clair-à-6-têtes-design-nordique-luminaire-décoratif-d-intérieur-idéal-pour-une-salle-à-manger-une-chambre-à-coucher-ou-un-salon
https://eeastlseigh.github.io/?Chart=expédition-rapide-démarrage-moteur-qdj2516a-p-gc090-11-qdj2516a-pc-24v-9-dents-qdj2516a-pc-t11-11-dents-moteur-diesel-démarreur-moteur
https://eeastlseigh.github.io/?Chart=moteur-sans-balais-1110-w-à-bride-1500-supportant-une-entrée-cc-48v-3000-tr-min-kit-d-entraînement
https://eeastlseigh.github.io/?Chart=lampadaire-humanoïde-moderne-à-led-boule-de-verre-décoration-de-la-maison-art-illimité
https://eeastlseigh.github.io/?Chart=module-igbt-d-origine-puissance-du-thyristor-mg100j6es52-nouveau-1-pièce
https://eeastlseigh.github.io/?Chart=lp156wfd-spk2-convient-lp156wfd-spk1-15-6-pouces-ordinateur-portable-tactile-écran-lcd-ips-1920-1080-edp-40pins-in-cell-matrice-d-affichage-tactile
https://eeastlseigh.github.io/?Chart=machine-à-chauffage-à-induction-220v-sans-peinture-outil-de-débosselage-de-voiture-boîte-chaude-machine-de-débosselage-automobile
https://eeastlseigh.github.io/?Chart=moc-serre-livres-créatif-intersto-org-pour-enfants-livre-d-affichage-assemblage-de-nuits-de-construction-jouets-en-briques-coffret-cadeau-en-stock-3058-pièces
https://eeastlseigh.github.io/?Chart=montre-de-sport-intelligente-étanche-ip67-android-ios-écouteurs-bluetooth-informations-d-appel-ndavid-horloge-de-pression-artérielle-montre-de-fitness-nouveau
https://eeastlseigh.github.io/?Chart=kowell-phares-de-voiture-pour-peugeot-4008-5008-led-drl-double-faisceau-h7-hid-xenon-bi-xenon
https://eeastlseigh.github.io/?Chart=extracteur-de-fruits-à-mastication-lente-sans-bpa-presse-à-froid-ju479-nouvelle-arrivée-d-usine-2021
https://eeastlseigh.github.io/?Chart=juste-de-siège-de-voiture-en-cuir-pu-pour-kia-tous-les-modèles-rio-opvilsportage-cerato-k2-k3k4-ceed-carnival-18
https://eeastlseigh.github.io/?Chart=lemforder-stores-bras-de-commande-inférieur-avant-3755701-009panamera-970-2014-97034105324-97034105323
https://eeastlseigh.github.io/?Chart=gigabyte-carte-mère-x670-aorus-elite-pour-hommes-128-go-am5-ddr5-prise-en-charge-de-la-carte-mère-cpu-ryzen-série-7000-testée-à-100-entièrement-fonctionnelle
https://eeastlseigh.github.io/?Chart=gsc-max-factory-figma-567-shiroko-sunaookami-anime-figurines-modèle-jouet-collection-beurre-cadeau-d-anniversaire-14-5cm-original-stock
https://eeastlseigh.github.io/?Chart=mini-machine-à-souder-portable-haute-puissance-mig-mma-tig-arc-igbt-onduleur-110-250a-esab-ac-dc-fil-de-cuivre-220v-200-v
https://eeastlseigh.github.io/?Chart=lustre-de-salon-de-style-crème-lampe-principale-française-simple-lampe-de-haricot-magique-créatif-moyen-et-prairie
https://eeastlseigh.github.io/?Chart=façades-de-panneau-de-développement-cortex-a35-de-noyau-px30
https://eeastlseigh.github.io/?Chart=everfine-compteur-électrique-intelligent-pf9804-testeur-de-paramètres-électriques-instrument-de-mesure-d-électricité
https://eeastlseigh.github.io/?Chart=jouets-de-bureau-télécommandés-fms-fcx-1-24-lémurien-rc-2-4ghz-8-km-h-modèle-à-deux-vitesses-quatre-roues-motrices-escalade-de-fond-nouveau
https://eeastlseigh.github.io/?Chart=jft-haute-précision-at-b4-24x-instruments-de-mesure-optiques-niveau-automatique-niveau-automatique
https://eeastlseigh.github.io/?Chart=meilleure-qualité-et-livraison-gratuite-ensemble-complet-de-housses-de-siège-de-voiture-confortables-et-durables-pour-mercedes-benz-classe-e-w211-2009-2002
https://eeastlseigh.github.io/?Chart=jupes-latérales-noires-en-fibre-de-carbone-abs-modèle-y-2021-2022-2023-2024
https://eeastlseigh.github.io/?Chart=éclairage-de-scène-led-rgbw-36x12w-à-tête-mobile-effet-stroboscopique-lavable-dmx-musique-brev-spectacle-de-mariage-dj-chang-lampe-de-décoration
https://eeastlseigh.github.io/?Chart=kit-de-carénage-de-haute-qualité-moulage-par-injection-noir-pour-suzuki-gsxr1000-2005-2006-carrosserie-gsxr1000-05-06-np90
https://eeastlseigh.github.io/?Chart=la-c831p-carte-mère-pour-dell-latitude-e5470-ordinateur-portable-carte-mère-i7-i5-6e-isabel
https://eeastlseigh.github.io/?Chart=mini-capteur-de-conduction-osseuse-sans-4-10-pièces-avec-module-de-casque-bluetooth-transducteur-de-conduction-osseuse
https://eeastlseigh.github.io/?Chart=kit-de-reconstruction-overcarlrebuild-pour-moteur-toyota-11z-bonne-qualité
https://eeastlseigh.github.io/?Chart=ec080sc2-écran-lcd-pour-liseuse-de-livres-électroniques-8-pouces-eink-livraison-gratuite
https://eeastlseigh.github.io/?Chart=mise-à-niveau-du-volant-de-voiture-led-en-fibre-de-carbone-forgée-audi-a3-b9-a4-b9-horizon-c7-a2-q3-q2-s3-8v-ltrs3-rs7-tt-8j-mk3-r8-sq5-6
https://eeastlseigh.github.io/?Chart=machine-à-souder-les-barrage-simples-cadre-d-osmose-supporter-ficateur-entièrement-automatique-processeur-de-purification-d-eau-filtre-ro-0-25
https://eeastlseigh.github.io/?Chart=lecteur-vidéo-carplay-pour-mercedes-benz-classe-g-android-13-mtk7862-10-25-64g-128g-12-5-w461-w463-g350-navigation-gps-limitation
https://eeastlseigh.github.io/?Chart=écran-d-affichage-à-cristaux-liquides-d-ordinateur-portable-de-15-6-ne156qhm-nz1-ne156qhm-nz2-lp156qhg-spv1-lq156t1jw03-qhd-2560x1440-165-240hz-100srgb-40pin
https://eeastlseigh.github.io/?Chart=gaming-lapmédication-windows-11-cahiers-office-netbook-11th-isabel-intel-core-i7-11370h-64-go-de-ram-2-to-touristes-ddr4-slots-m-2-ddr4-5g-wifi
https://eeastlseigh.github.io/?Chart=mascotte-de-cow-dog-costume-pour-chien-fantaisie-personnalisée-kits-de-cosplay-thème-mascotte-robe-fantaisie-costume-de-carnaval
https://eeastlseigh.github.io/?Chart=ensemble-de-pompe-à-carburant-nissan-altima-maxima-2007-2014-2-5l-3-5l-gam988-e8752m-17040-et00a-nouveau-35
https://eeastlseigh.github.io/?Chart=équipement-avec-sonde-pour-inspection-nde-jut-800-détecteur-de-défauts-à-ultrasons-détection-numérique-de-défauts-ndt
https://eeastlseigh.github.io/?Chart=eshakhare-carte-mère-pour-chromebook-100e-cpu-n3350-4-go-de-ram-32-go-de-rom-système-emmc-umanok-100-testé
https://eeastlseigh.github.io/?Chart=mellocker-armoire-à-chaussures-en-rotin-en-bois-massif-de-style-japonais-armoire-de-rangement-moderne-multifonctionnelle-simple-grande-capacité
https://eeastlseigh.github.io/?Chart=lit-double-européen-haut-de-gamme-pour-enfants-design-glamour-sol-moderne-lit-jumeau-de-luxe-rangement-pour-filles-meubles-de-chambre-à-coucher
https://eeastlseigh.github.io/?Chart=horloge-de-prière-islamique-personnalisée-athan-azan-10-pouces-calendrier-numérique-avec-application
https://eeastlseigh.github.io/?Chart=mini-corne-français-pour-adulte-et-enfant-interne-pratique-performance-sur-scène-professionnel-petit-musique
https://eeastlseigh.github.io/?Chart=kit-de-carénage-pour-moto-rouge-et-noir-pour-honda-cbr600-rr-2007-2008-cbr600-rr-07-08-100-fit-ll65
https://eeastlseigh.github.io/?Chart=mean-well-alimentation-électrique-rsp-200-24-15v-12v-48v-201w-sortie-unique-avec-fonction-pfc
https://eeastlseigh.github.io/?Chart=manteau-en-fourrure-de-renard-naturelle-pour-femme-veste-complète-d-hiver-pardessus-de-fourrure-personnalisé-grande-taille-livraison-gratuite-h842
https://eeastlseigh.github.io/?Chart=machine-de-calcul-de-travail-cnc-routeur-gravure-bois-porte-meubles-1325
https://eeastlseigh.github.io/?Chart=icnehs-écran-lcd-de-remplacement-15-6-p-1080-adapté-t0c-edp-40-broches-60hz-pour-ordinateur-portable-panneau-d-affichage-sur-cellule-nv156fhm-t0c
https://eeastlseigh.github.io/?Chart=ensemble-de-table-et-chaises-d-extérieur-en-aluminium-table-et-chaise-en-métal-meubles-de-salle-à-manger-hôtel-et-jardin-événement-et-cuisine
https://eeastlseigh.github.io/?Chart=machine-à-dénuder-rotative-pour-fil-et-câble-de-véhicule-à-énergie-nouvelle-épluchage-électrique-écran-tactile-ly-4806-8023-11023
https://eeastlseigh.github.io/?Chart=jingyuqin-100-pcs-lot-hu66-lame-voiture-clé-boîte-vierge-pour-vw-volkswagen-passat-transpondeur-clé-coquille